REMARK  18 active torsions:
REMARK  status: ('A' for Active; 'I' for Inactive)
REMARK    1  A    between atoms: N2_4  and  C3_5 
REMARK    2  A    between atoms: C4_7  and  C5_8 
REMARK    3  A    between atoms: C5_8  and  O2_9 
REMARK    4  A    between atoms: O2_9  and  P1_10 
REMARK    5  A    between atoms: P1_10  and  O5_13 
REMARK    6  A    between atoms: O5_13  and  P2_14 
REMARK    7  A    between atoms: P2_14  and  O8_17 
REMARK    8  A    between atoms: O8_17  and  P3_18 
REMARK    9  A    between atoms: P3_18  and  O11_21 
REMARK   10  A    between atoms: O11_21  and  C6_22 
REMARK   11  A    between atoms: C6_22  and  C7_23 
REMARK   12  A    between atoms: C8_25  and  N3_26 
REMARK   13  A    between atoms: C12_33  and  N6_34 
REMARK   14  A    between atoms: C14_37  and  O14_38 
REMARK   15  A    between atoms: C15_39  and  O15_40 
REMARK   16  A    between atoms: C16_41  and  O16_42 
REMARK   17  A    between atoms: C17_43  and  O17_44 
REMARK   18  A    between atoms: C19_47  and  N9_48 
ROOT
HETATM    1  P2  UNL     1       1.366  -3.637  -2.110  1.00  0.00     0.427 P 
HETATM    2  O6  UNL     1       1.602  -5.062  -1.659  1.00  0.00    -0.624 OA
HETATM    3  O7  UNL     1       2.820  -3.006  -2.706  1.00  0.00    -0.624 OA
ENDROOT
BRANCH   1   4
HETATM    4  O5  UNL     1       0.841  -2.678  -0.800  1.00  0.00    -0.180 OA
BRANCH   4   5
HETATM    5  P1  UNL     1       1.832  -3.026   0.544  1.00  0.00     0.417 P 
HETATM    6  O3  UNL     1       3.297  -3.022   0.160  1.00  0.00    -0.624 OA
HETATM    7  O4  UNL     1       1.433  -4.554   1.155  1.00  0.00    -0.624 OA
BRANCH   5   8
HETATM    8  O2  UNL     1       1.531  -1.872   1.763  1.00  0.00    -0.287 OA
BRANCH   8   9
HETATM    9  C5  UNL     1       2.288  -0.713   1.495  1.00  0.00     0.216 C 
BRANCH   9  10
HETATM   10  C4  UNL     1       1.888   0.410   2.460  1.00  0.00     0.180 C 
HETATM   11  O1  UNL     1       0.518   0.692   2.335  1.00  0.00    -0.353 OA
HETATM   12  C3  UNL     1       0.081   1.201   3.577  1.00  0.00     0.262 C 
HETATM   13  C17 UNL     1       1.143   0.917   4.652  1.00  0.00     0.198 C 
HETATM   14  C16 UNL     1       2.160   0.067   3.917  1.00  0.00     0.182 C 
BRANCH  12  15
HETATM   15  N2  UNL     1      -1.201   0.587   3.927  1.00  0.00    -0.295 N 
HETATM   16  C2  UNL     1      -2.375   1.225   4.167  1.00  0.00     0.190 A 
HETATM   17  N1  UNL     1      -3.391   0.357   4.414  1.00  0.00    -0.340 N 
HETATM   18  C1  UNL     1      -4.779   0.691   4.720  1.00  0.00     0.157 C 
HETATM   19  C21 UNL     1      -2.825  -0.863   4.318  1.00  0.00     0.151 A 
HETATM   20  C18 UNL     1      -1.509  -0.718   4.027  1.00  0.00     0.184 A 
HETATM   21  C20 UNL     1      -3.367  -2.136   4.459  1.00  0.00     0.290 A 
HETATM   22  N8  UNL     1      -0.677  -1.776   3.878  1.00  0.00    -0.044 NA
HETATM   23  C19 UNL     1      -1.194  -3.034   4.027  1.00  0.00     0.703 A 
HETATM   24  N10 UNL     1      -2.529  -3.206   4.308  1.00  0.00    -0.153 N 
HETATM   25  H30 UNL     1      -2.909  -4.172   4.416  1.00  0.00     0.187 HD
HETATM   26  O18 UNL     1      -4.588  -2.309   4.720  1.00  0.00    -0.265 OA
BRANCH  23  27
HETATM   27  N9  UNL     1      -0.335  -4.167   3.898  1.00  0.00    -0.233 N 
HETATM   28  H28 UNL     1       0.693  -4.037   3.762  1.00  0.00     0.174 HD
HETATM   29  H29 UNL     1      -0.718  -5.136   3.955  1.00  0.00     0.174 HD
ENDBRANCH  23  27
ENDBRANCH  12  15
BRANCH  13  30
HETATM   30  O17 UNL     1       1.726   2.117   5.090  1.00  0.00    -0.388 OA
HETATM   31  H27 UNL     1       1.079   2.540   5.713  1.00  0.00     0.210 HD
ENDBRANCH  13  30
BRANCH  14  32
HETATM   32  O16 UNL     1       3.485   0.382   4.266  1.00  0.00    -0.390 OA
HETATM   33  H25 UNL     1       3.627   0.024   5.178  1.00  0.00     0.210 HD
ENDBRANCH  14  32
ENDBRANCH   9  10
ENDBRANCH   8   9
ENDBRANCH   5   8
ENDBRANCH   4   5
ENDBRANCH   1   4
BRANCH   1  34
HETATM   34  O8  UNL     1       0.226  -3.690  -3.380  1.00  0.00    -0.180 OA
BRANCH  34  35
HETATM   35  P3  UNL     1      -0.740  -2.287  -3.321  1.00  0.00     0.417 P 
HETATM   36  O9  UNL     1      -1.551  -2.275  -2.044  1.00  0.00    -0.624 OA
HETATM   37  O10 UNL     1      -1.828  -2.311  -4.616  1.00  0.00    -0.624 OA
BRANCH  35  38
HETATM   38  O11 UNL     1       0.201  -0.870  -3.401  1.00  0.00    -0.287 OA
BRANCH  38  39
HETATM   39  C6  UNL     1       0.929  -0.875  -4.607  1.00  0.00     0.216 C 
BRANCH  39  40
HETATM   40  C7  UNL     1       1.589   0.490  -4.825  1.00  0.00     0.180 C 
HETATM   41  O12 UNL     1       0.599   1.480  -4.970  1.00  0.00    -0.353 OA
HETATM   42  C8  UNL     1       1.158   2.701  -4.532  1.00  0.00     0.262 C 
HETATM   43  C14 UNL     1       2.445   2.418  -3.740  1.00  0.00     0.198 C 
HETATM   44  C15 UNL     1       2.505   0.904  -3.677  1.00  0.00     0.182 C 
BRANCH  42  45
HETATM   45  N3  UNL     1       0.175   3.418  -3.718  1.00  0.00    -0.293 N 
HETATM   46  C9  UNL     1      -0.374   4.636  -3.977  1.00  0.00     0.214 A 
HETATM   47  N4  UNL     1      -1.333   4.996  -3.081  1.00  0.00    -0.234 NA
HETATM   48  C10 UNL     1      -1.362   3.946  -2.238  1.00  0.00     0.173 A 
HETATM   49  C11 UNL     1      -2.173   3.723  -1.138  1.00  0.00     0.292 A 
HETATM   50  C13 UNL     1      -0.470   3.006  -2.618  1.00  0.00     0.186 A 
HETATM   51  O13 UNL     1      -3.021   4.578  -0.771  1.00  0.00    -0.265 OA
HETATM   52  N5  UNL     1      -2.032   2.538  -0.466  1.00  0.00    -0.152 N 
HETATM   53  C12 UNL     1      -1.118   1.596  -0.875  1.00  0.00     0.703 A 
HETATM   54  H17 UNL     1      -2.636   2.345   0.365  1.00  0.00     0.187 HD
HETATM   55  N7  UNL     1      -0.326   1.830  -1.964  1.00  0.00    -0.044 NA
BRANCH  53  56
HETATM   56  N6  UNL     1      -0.993   0.363  -0.170  1.00  0.00    -0.233 N 
HETATM   57  H18 UNL     1      -0.247  -0.317  -0.428  1.00  0.00     0.174 HD
HETATM   58  H19 UNL     1      -1.626   0.138   0.629  1.00  0.00     0.174 HD
ENDBRANCH  53  56
ENDBRANCH  42  45
BRANCH  43  59
HETATM   59  O14 UNL     1       3.572   2.976  -4.376  1.00  0.00    -0.388 OA
HETATM   60  H21 UNL     1       3.624   2.602  -5.296  1.00  0.00     0.210 HD
ENDBRANCH  43  59
BRANCH  44  61
HETATM   61  O15 UNL     1       3.811   0.421  -3.862  1.00  0.00    -0.390 OA
HETATM   62  H23 UNL     1       3.843  -0.479  -3.450  1.00  0.00     0.210 HD
ENDBRANCH  44  61
ENDBRANCH  39  40
ENDBRANCH  38  39
ENDBRANCH  35  38
ENDBRANCH  34  35
ENDBRANCH   1  34
TORSDOF 18
