REMARK  18 active torsions:
REMARK  status: ('A' for Active; 'I' for Inactive)
REMARK    1  A    between atoms: N2_4  and  C3_5 
REMARK    2  A    between atoms: C4_7  and  C5_8 
REMARK    3  A    between atoms: C5_8  and  O2_9 
REMARK    4  A    between atoms: O2_9  and  P1_10 
REMARK    5  A    between atoms: P1_10  and  O5_13 
REMARK    6  A    between atoms: O5_13  and  P2_14 
REMARK    7  A    between atoms: P2_14  and  O8_17 
REMARK    8  A    between atoms: O8_17  and  P3_18 
REMARK    9  A    between atoms: P3_18  and  O11_21 
REMARK   10  A    between atoms: O11_21  and  C6_22 
REMARK   11  A    between atoms: C6_22  and  C7_23 
REMARK   12  A    between atoms: C8_25  and  N3_26 
REMARK   13  A    between atoms: C11_29  and  N4_30 
REMARK   14  A    between atoms: C13_34  and  O14_35 
REMARK   15  A    between atoms: C14_36  and  O15_37 
REMARK   16  A    between atoms: C15_38  and  O16_39 
REMARK   17  A    between atoms: C16_40  and  O17_41 
REMARK   18  A    between atoms: C18_44  and  N7_45 
ROOT
HETATM    1  P1  UNL     1      -2.014  -3.033   0.548  1.00  0.00     0.417 P 
HETATM    2  O3  UNL     1      -1.859  -3.980   1.717  1.00  0.00    -0.624 OA
HETATM    3  O4  UNL     1      -0.776  -1.875   0.597  1.00  0.00    -0.624 OA
ENDROOT
BRANCH   1   4
HETATM    4  O2  UNL     1      -3.524  -2.253   0.682  1.00  0.00    -0.287 OA
BRANCH   4   5
HETATM    5  C5  UNL     1      -3.557  -1.202  -0.255  1.00  0.00     0.216 C 
BRANCH   5   6
HETATM    6  C4  UNL     1      -4.914  -0.495  -0.184  1.00  0.00     0.180 C 
HETATM    7  O1  UNL     1      -5.149  -0.028   1.131  1.00  0.00    -0.353 OA
HETATM    8  C3  UNL     1      -5.312   1.375   1.083  1.00  0.00     0.262 C 
HETATM    9  C16 UNL     1      -5.692   1.747  -0.353  1.00  0.00     0.198 C 
HETATM   10  C15 UNL     1      -4.991   0.681  -1.162  1.00  0.00     0.182 C 
BRANCH   8  11
HETATM   11  N2  UNL     1      -4.072   2.043   1.521  1.00  0.00    -0.295 N 
HETATM   12  C2  UNL     1      -3.761   3.366   1.418  1.00  0.00     0.190 A 
HETATM   13  N1  UNL     1      -2.597   3.675   2.043  1.00  0.00    -0.340 N 
HETATM   14  C1  UNL     1      -1.977   4.992   2.143  1.00  0.00     0.157 C 
HETATM   15  C20 UNL     1      -2.183   2.515   2.586  1.00  0.00     0.151 A 
HETATM   16  C17 UNL     1      -3.081   1.543   2.287  1.00  0.00     0.184 A 
HETATM   17  C19 UNL     1      -1.088   2.226   3.395  1.00  0.00     0.290 A 
HETATM   18  N6  UNL     1      -2.973   0.286   2.782  1.00  0.00    -0.044 NA
HETATM   19  C18 UNL     1      -1.902  -0.013   3.578  1.00  0.00     0.703 A 
HETATM   20  N8  UNL     1      -0.964   0.950   3.870  1.00  0.00    -0.153 N 
HETATM   21  H30 UNL     1      -0.147   0.707   4.474  1.00  0.00     0.187 HD
HETATM   22  O18 UNL     1      -0.236   3.107   3.689  1.00  0.00    -0.265 OA
BRANCH  19  23
HETATM   23  N7  UNL     1      -1.757  -1.335   4.095  1.00  0.00    -0.233 N 
HETATM   24  H28 UNL     1      -2.464  -2.069   3.867  1.00  0.00     0.174 HD
HETATM   25  H29 UNL     1      -0.920  -1.599   4.663  1.00  0.00     0.174 HD
ENDBRANCH  19  23
ENDBRANCH   8  11
BRANCH   9  26
HETATM   26  O17 UNL     1      -7.092   1.713  -0.530  1.00  0.00    -0.388 OA
HETATM   27  H27 UNL     1      -7.419   0.812  -0.266  1.00  0.00     0.210 HD
ENDBRANCH   9  26
BRANCH  10  28
HETATM   28  O16 UNL     1      -5.708   0.331  -2.320  1.00  0.00    -0.390 OA
HETATM   29  H25 UNL     1      -5.592   1.084  -2.957  1.00  0.00     0.210 HD
ENDBRANCH  10  28
ENDBRANCH   5   6
ENDBRANCH   4   5
ENDBRANCH   1   4
BRANCH   1  30
HETATM   30  O5  UNL     1      -1.974  -3.909  -0.913  1.00  0.00    -0.180 OA
BRANCH  30  31
HETATM   31  P2  UNL     1      -0.402  -4.539  -1.096  1.00  0.00     0.427 P 
HETATM   32  O6  UNL     1      -0.111  -5.518   0.022  1.00  0.00    -0.624 OA
HETATM   33  O7  UNL     1      -0.336  -5.375  -2.565  1.00  0.00    -0.624 OA
BRANCH  31  34
HETATM   34  O8  UNL     1       0.706  -3.242  -1.179  1.00  0.00    -0.180 OA
BRANCH  34  35
HETATM   35  P3  UNL     1       2.113  -3.633  -0.306  1.00  0.00     0.417 P 
HETATM   36  O9  UNL     1       2.818  -4.801  -0.959  1.00  0.00    -0.624 OA
HETATM   37  O10 UNL     1       1.734  -4.009   1.303  1.00  0.00    -0.624 OA
BRANCH  35  38
HETATM   38  O11 UNL     1       3.113  -2.255  -0.349  1.00  0.00    -0.287 OA
BRANCH  38  39
HETATM   39  C6  UNL     1       4.255  -2.477   0.446  1.00  0.00     0.216 C 
BRANCH  39  40
HETATM   40  C7  UNL     1       4.997  -1.149   0.647  1.00  0.00     0.180 C 
HETATM   41  O12 UNL     1       5.411  -0.644  -0.609  1.00  0.00    -0.353 OA
HETATM   42  C8  UNL     1       4.955   0.686  -0.704  1.00  0.00     0.264 C 
HETATM   43  C13 UNL     1       3.765   0.844   0.228  1.00  0.00     0.198 C 
HETATM   44  C14 UNL     1       4.118  -0.102   1.353  1.00  0.00     0.182 C 
BRANCH  42  45
HETATM   45  N3  UNL     1       4.588   1.018  -2.097  1.00  0.00    -0.278 N 
HETATM   46  C9  UNL     1       3.880   0.116  -2.845  1.00  0.00     0.102 A 
HETATM   47  C10 UNL     1       3.518   0.407  -4.158  1.00  0.00     0.067 A 
HETATM   48  C11 UNL     1       3.885   1.639  -4.694  1.00  0.00     0.128 A 
HETATM   49  N5  UNL     1       4.577   2.522  -3.929  1.00  0.00    -0.177 NA
HETATM   50  C12 UNL     1       4.927   2.230  -2.648  1.00  0.00     0.352 A 
HETATM   51  O13 UNL     1       5.557   3.093  -1.977  1.00  0.00    -0.244 OA
BRANCH  48  52
HETATM   52  N4  UNL     1       3.536   1.979  -6.035  1.00  0.00    -0.384 N 
HETATM   53  H18 UNL     1       3.809   2.905  -6.433  1.00  0.00     0.157 HD
HETATM   54  H19 UNL     1       3.018   1.305  -6.644  1.00  0.00     0.157 HD
ENDBRANCH  48  52
ENDBRANCH  42  45
BRANCH  43  55
HETATM   55  O14 UNL     1       3.639   2.175   0.658  1.00  0.00    -0.388 OA
HETATM   56  H21 UNL     1       2.767   2.235   1.130  1.00  0.00     0.210 HD
ENDBRANCH  43  55
BRANCH  44  57
HETATM   57  O15 UNL     1       4.871   0.549   2.346  1.00  0.00    -0.390 OA
HETATM   58  H23 UNL     1       4.221   0.982   2.962  1.00  0.00     0.210 HD
ENDBRANCH  44  57
ENDBRANCH  39  40
ENDBRANCH  38  39
ENDBRANCH  35  38
ENDBRANCH  34  35
ENDBRANCH  31  34
ENDBRANCH  30  31
ENDBRANCH   1  30
TORSDOF 18
