MODEL 1
REMARK VINA RESULT:     -10.2      0.000      0.000
REMARK  11 active torsions:
REMARK  status: ('A' for Active; 'I' for Inactive)
REMARK    1  A    between atoms: PG_1  and  O3B_8 
REMARK    2  A    between atoms: PB_5  and  O3A_12 
REMARK    3  A    between atoms: PB_5  and  O3B_8 
REMARK    4  A    between atoms: PA_9  and  O5'_13 
REMARK    5  A    between atoms: PA_9  and  O3A_12 
REMARK    6  A    between atoms: O5'_13  and  C5'_14 
REMARK    7  A    between atoms: C5'_14  and  C4'_15 
REMARK    8  A    between atoms: C3'_17  and  O3'_18 
REMARK    9  A    between atoms: C2'_20  and  O2'_21 
REMARK   10  A    between atoms: C1'_23  and  N9_24 
REMARK   11  A    between atoms: C6_29  and  N6_30 
ROOT
HETATM    1  C4' ATP A 501      40.840  18.849  14.108  1.00  5.20     0.180 C 
HETATM    2  O4' ATP A 501      40.812  19.921  13.176  1.00  4.96    -0.353 OA
HETATM    3  C3' ATP A 501      40.288  19.499  15.364  1.00  5.52     0.182 C 
HETATM    4  C2' ATP A 501      40.914  20.885  15.345  1.00  4.80     0.198 C 
HETATM    5  C1' ATP A 501      41.190  21.121  13.863  1.00  4.22     0.262 C 
ENDROOT
BRANCH   5   6
HETATM    6  N9  ATP A 501      40.431  22.204  13.222  1.00  3.78    -0.297 N 
HETATM    7  C4  ATP A 501      39.095  22.411  13.250  1.00  3.29     0.142 A 
HETATM    8  N3  ATP A 501      38.141  21.741  13.934  1.00  4.79    -0.336 N 
HETATM    9  C5  ATP A 501      38.864  23.518  12.426  1.00  3.65     0.122 A 
HETATM   10  C2  ATP A 501      36.895  22.231  13.787  1.00  4.70     0.183 A 
HETATM   12  N1  ATP A 501      36.577  23.284  12.985  1.00  4.95    -0.337 N 
HETATM   13  C6  ATP A 501      37.545  23.952  12.295  1.00  4.22     0.131 A 
HETATM   15  N7  ATP A 501      40.043  23.990  11.927  1.00  4.47    -0.346 N 
HETATM   16  C8  ATP A 501      40.979  23.162  12.412  1.00  4.18     0.188 A 
BRANCH  13  18
HETATM   18  N6  ATP A 501      37.162  24.930  11.465  1.00  5.27    -0.383 N 
ATOM     19  H62 ATP A 501      36.797  25.789  11.876  1.00  0.00     0.157 HD
ATOM     20  H61 ATP A 501      37.153  24.840  10.449  1.00  0.00     0.157 HD
ENDBRANCH  13  18
ENDBRANCH   5   6
BRANCH   4  21
HETATM   21  O2' ATP A 501      42.112  20.912  16.095  1.00  6.19    -0.388 OA
ATOM     22  H2' ATP A 501      42.743  21.508  15.708  1.00  0.00     0.210 HD
ENDBRANCH   4  21
BRANCH   3  23
HETATM   23  O3' ATP A 501      40.542  18.772  16.534  1.00  7.48    -0.390 OA
ATOM     24  H3' ATP A 501      40.693  19.311  17.301  1.00  0.00     0.210 HD
ENDBRANCH   3  23
BRANCH   1  25
HETATM   25  C5' ATP A 501      39.973  17.703  13.651  1.00  6.42     0.216 C 
BRANCH  25  26
HETATM   26  O5' ATP A 501      40.393  17.254  12.377  1.00  6.65    -0.287 OA
BRANCH  26  27
HETATM   27  PA  ATP A 501      41.359  16.011  12.192  1.00  6.54     0.417 P 
HETATM   28  O2A ATP A 501      40.612  14.720  12.425  1.00  7.34    -0.624 OA
HETATM   29  O1A ATP A 501      42.078  16.260  10.923  1.00  8.18    -0.624 OA
BRANCH  27  30
HETATM   30  O3A ATP A 501      42.359  16.142  13.451  1.00  6.94    -0.180 OA
BRANCH  30  31
HETATM   31  PB  ATP A 501      43.919  16.519  13.390  1.00  6.53     0.428 P 
HETATM   32  O1B ATP A 501      44.479  16.514  14.752  1.00  8.60    -0.624 OA
HETATM   33  O2B ATP A 501      44.594  15.645  12.386  1.00  5.78    -0.624 OA
BRANCH  31  34
HETATM   34  O3B ATP A 501      43.753  18.006  12.848  1.00  7.50    -0.173 OA
BRANCH  34  35
HETATM   35  PG  ATP A 501      44.628  19.278  13.301  1.00  8.07     0.431 P 
HETATM   36  O2G ATP A 501      44.298  20.359  12.299  1.00  9.86    -0.616 OA
HETATM   37  O3G ATP A 501      46.075  18.813  13.148  1.00  9.14    -0.616 OA
HETATM   38  O1G ATP A 501      44.238  19.592  14.725  1.00  6.46    -0.616 OA
ENDBRANCH  34  35
ENDBRANCH  31  34
ENDBRANCH  30  31
ENDBRANCH  27  30
ENDBRANCH  26  27
ENDBRANCH  25  26
ENDBRANCH   1  25
TORSDOF 11
ENDMDL
MODEL 2
REMARK VINA RESULT:      -9.0      1.395      3.393
REMARK  11 active torsions:
REMARK  status: ('A' for Active; 'I' for Inactive)
REMARK    1  A    between atoms: PG_1  and  O3B_8 
REMARK    2  A    between atoms: PB_5  and  O3A_12 
REMARK    3  A    between atoms: PB_5  and  O3B_8 
REMARK    4  A    between atoms: PA_9  and  O5'_13 
REMARK    5  A    between atoms: PA_9  and  O3A_12 
REMARK    6  A    between atoms: O5'_13  and  C5'_14 
REMARK    7  A    between atoms: C5'_14  and  C4'_15 
REMARK    8  A    between atoms: C3'_17  and  O3'_18 
REMARK    9  A    between atoms: C2'_20  and  O2'_21 
REMARK   10  A    between atoms: C1'_23  and  N9_24 
REMARK   11  A    between atoms: C6_29  and  N6_30 
ROOT
HETATM    1  C4' ATP A 501      42.052  19.930  14.723  1.00  5.20     0.180 C 
HETATM    2  O4' ATP A 501      41.404  21.189  14.611  1.00  4.96    -0.353 OA
HETATM    3  C3' ATP A 501      41.334  19.104  13.671  1.00  5.52     0.182 C 
HETATM    4  C2' ATP A 501      39.886  19.550  13.804  1.00  4.80     0.198 C 
HETATM    5  C1' ATP A 501      40.008  20.955  14.385  1.00  4.22     0.262 C 
ENDROOT
BRANCH   5   6
HETATM    6  N9  ATP A 501      39.552  22.058  13.527  1.00  3.78    -0.297 N 
HETATM    7  C4  ATP A 501      38.289  22.510  13.356  1.00  3.29     0.142 A 
HETATM    8  N3  ATP A 501      37.155  22.132  13.986  1.00  4.79    -0.336 N 
HETATM    9  C5  ATP A 501      38.372  23.512  12.383  1.00  3.65     0.122 A 
HETATM   10  C2  ATP A 501      36.055  22.818  13.620  1.00  4.70     0.183 A 
HETATM   12  N1  ATP A 501      36.039  23.787  12.664  1.00  4.95    -0.337 N 
HETATM   13  C6  ATP A 501      37.188  24.159  12.031  1.00  4.22     0.131 A 
HETATM   15  N7  ATP A 501      39.668  23.682  11.989  1.00  4.47    -0.346 N 
HETATM   16  C8  ATP A 501      40.363  22.772  12.686  1.00  4.18     0.188 A 
BRANCH  13  18
HETATM   18  N6  ATP A 501      37.097  25.063  11.048  1.00  5.27    -0.383 N 
ATOM     19  H62 ATP A 501      37.162  26.049  11.299  1.00  0.00     0.157 HD
ATOM     20  H61 ATP A 501      36.903  24.826  10.075  1.00  0.00     0.157 HD
ENDBRANCH  13  18
ENDBRANCH   5   6
BRANCH   4  21
HETATM   21  O2' ATP A 501      39.170  18.700  14.679  1.00  6.19    -0.388 OA
ATOM     22  H2' ATP A 501      38.477  18.243  14.219  1.00  0.00     0.210 HD
ENDBRANCH   4  21
BRANCH   3  23
HETATM   23  O3' ATP A 501      41.523  17.722  13.814  1.00  7.48    -0.390 OA
ATOM     24  H3' ATP A 501      41.856  17.462  14.664  1.00  0.00     0.210 HD
ENDBRANCH   3  23
BRANCH   1  25
HETATM   25  C5' ATP A 501      43.526  20.045  14.424  1.00  6.42     0.216 C 
BRANCH  25  26
HETATM   26  O5' ATP A 501      43.781  19.666  13.086  1.00  6.65    -0.287 OA
BRANCH  26  27
HETATM   27  PA  ATP A 501      45.237  19.312  12.567  1.00  6.54     0.417 P 
HETATM   28  O2A ATP A 501      45.544  20.064  11.296  1.00  7.34    -0.624 OA
HETATM   29  O1A ATP A 501      46.114  19.425  13.754  1.00  8.18    -0.624 OA
BRANCH  27  30
HETATM   30  O3A ATP A 501      45.091  17.772  12.110  1.00  6.94    -0.180 OA
BRANCH  30  31
HETATM   31  PB  ATP A 501      45.169  16.485  13.068  1.00  6.53     0.428 P 
HETATM   32  O1B ATP A 501      46.572  16.226  13.430  1.00  8.60    -0.624 OA
HETATM   33  O2B ATP A 501      44.207  16.657  14.197  1.00  5.78    -0.624 OA
BRANCH  31  34
HETATM   34  O3B ATP A 501      44.644  15.412  12.017  1.00  7.50    -0.173 OA
BRANCH  34  35
HETATM   35  PG  ATP A 501      43.103  15.055  11.721  1.00  8.07     0.431 P 
HETATM   36  O2G ATP A 501      42.628  14.316  12.950  1.00  9.86    -0.616 OA
HETATM   37  O3G ATP A 501      43.158  14.126  10.511  1.00  9.14    -0.616 OA
HETATM   38  O1G ATP A 501      42.397  16.361  11.453  1.00  6.46    -0.616 OA
ENDBRANCH  34  35
ENDBRANCH  31  34
ENDBRANCH  30  31
ENDBRANCH  27  30
ENDBRANCH  26  27
ENDBRANCH  25  26
ENDBRANCH   1  25
TORSDOF 11
ENDMDL
MODEL 3
REMARK VINA RESULT:      -8.8      1.924      2.957
REMARK  11 active torsions:
REMARK  status: ('A' for Active; 'I' for Inactive)
REMARK    1  A    between atoms: PG_1  and  O3B_8 
REMARK    2  A    between atoms: PB_5  and  O3A_12 
REMARK    3  A    between atoms: PB_5  and  O3B_8 
REMARK    4  A    between atoms: PA_9  and  O5'_13 
REMARK    5  A    between atoms: PA_9  and  O3A_12 
REMARK    6  A    between atoms: O5'_13  and  C5'_14 
REMARK    7  A    between atoms: C5'_14  and  C4'_15 
REMARK    8  A    between atoms: C3'_17  and  O3'_18 
REMARK    9  A    between atoms: C2'_20  and  O2'_21 
REMARK   10  A    between atoms: C1'_23  and  N9_24 
REMARK   11  A    between atoms: C6_29  and  N6_30 
ROOT
HETATM    1  C4' ATP A 501      42.155  19.550  14.453  1.00  5.20     0.180 C 
HETATM    2  O4' ATP A 501      41.657  20.877  14.366  1.00  4.96    -0.353 OA
HETATM    3  C3' ATP A 501      41.165  18.777  13.600  1.00  5.52     0.182 C 
HETATM    4  C2' ATP A 501      39.830  19.417  13.947  1.00  4.80     0.198 C 
HETATM    5  C1' ATP A 501      40.224  20.820  14.399  1.00  4.22     0.262 C 
ENDROOT
BRANCH   5   6
HETATM    6  N9  ATP A 501      39.761  21.931  13.556  1.00  3.78    -0.297 N 
HETATM    7  C4  ATP A 501      38.496  22.380  13.395  1.00  3.29     0.142 A 
HETATM    8  N3  ATP A 501      37.364  21.988  14.022  1.00  4.79    -0.336 N 
HETATM    9  C5  ATP A 501      38.571  23.394  12.434  1.00  3.65     0.122 A 
HETATM   10  C2  ATP A 501      36.260  22.674  13.669  1.00  4.70     0.183 A 
HETATM   12  N1  ATP A 501      36.238  23.655  12.725  1.00  4.95    -0.337 N 
HETATM   13  C6  ATP A 501      37.383  24.040  12.094  1.00  4.22     0.131 A 
HETATM   15  N7  ATP A 501      39.865  23.576  12.039  1.00  4.47    -0.346 N 
HETATM   16  C8  ATP A 501      40.566  22.661  12.722  1.00  4.18     0.188 A 
BRANCH  13  18
HETATM   18  N6  ATP A 501      37.285  24.957  11.123  1.00  5.27    -0.383 N 
ATOM     19  H62 ATP A 501      38.117  25.155  10.568  1.00  0.00     0.157 HD
ATOM     20  H61 ATP A 501      36.447  25.513  10.950  1.00  0.00     0.157 HD
ENDBRANCH  13  18
ENDBRANCH   5   6
BRANCH   4  21
HETATM   21  O2' ATP A 501      39.183  18.713  14.988  1.00  6.19    -0.388 OA
ATOM     22  H2' ATP A 501      39.799  18.172  15.469  1.00  0.00     0.210 HD
ENDBRANCH   4  21
BRANCH   3  23
HETATM   23  O3' ATP A 501      41.206  17.391  13.804  1.00  7.48    -0.390 OA
ATOM     24  H3' ATP A 501      40.935  16.880  13.051  1.00  0.00     0.210 HD
ENDBRANCH   3  23
BRANCH   1  25
HETATM   25  C5' ATP A 501      43.555  19.454  13.899  1.00  6.42     0.216 C 
BRANCH  25  26
HETATM   26  O5' ATP A 501      43.956  18.099  13.826  1.00  6.65    -0.287 OA
BRANCH  26  27
HETATM   27  PA  ATP A 501      44.688  17.498  12.555  1.00  6.54     0.417 P 
HETATM   28  O2A ATP A 501      44.032  16.210  12.125  1.00  7.34    -0.624 OA
HETATM   29  O1A ATP A 501      44.834  18.632  11.615  1.00  8.18    -0.624 OA
BRANCH  27  30
HETATM   30  O3A ATP A 501      46.123  17.056  13.143  1.00  6.94    -0.180 OA
BRANCH  30  31
HETATM   31  PB  ATP A 501      47.122  17.971  14.004  1.00  6.53     0.428 P 
HETATM   32  O1B ATP A 501      48.488  17.430  13.912  1.00  8.60    -0.624 OA
HETATM   33  O2B ATP A 501      46.940  19.399  13.608  1.00  5.78    -0.624 OA
BRANCH  31  34
HETATM   34  O3B ATP A 501      46.489  17.681  15.435  1.00  7.50    -0.173 OA
BRANCH  34  35
HETATM   35  PG  ATP A 501      46.674  18.589  16.751  1.00  8.07     0.431 P 
HETATM   36  O2G ATP A 501      45.586  19.631  16.665  1.00  9.86    -0.616 OA
HETATM   37  O3G ATP A 501      48.054  19.221  16.579  1.00  9.14    -0.616 OA
HETATM   38  O1G ATP A 501      46.574  17.662  17.938  1.00  6.46    -0.616 OA
ENDBRANCH  34  35
ENDBRANCH  31  34
ENDBRANCH  30  31
ENDBRANCH  27  30
ENDBRANCH  26  27
ENDBRANCH  25  26
ENDBRANCH   1  25
TORSDOF 11
ENDMDL
MODEL 4
REMARK VINA RESULT:      -8.7      1.289      2.473
REMARK  11 active torsions:
REMARK  status: ('A' for Active; 'I' for Inactive)
REMARK    1  A    between atoms: PG_1  and  O3B_8 
REMARK    2  A    between atoms: PB_5  and  O3A_12 
REMARK    3  A    between atoms: PB_5  and  O3B_8 
REMARK    4  A    between atoms: PA_9  and  O5'_13 
REMARK    5  A    between atoms: PA_9  and  O3A_12 
REMARK    6  A    between atoms: O5'_13  and  C5'_14 
REMARK    7  A    between atoms: C5'_14  and  C4'_15 
REMARK    8  A    between atoms: C3'_17  and  O3'_18 
REMARK    9  A    between atoms: C2'_20  and  O2'_21 
REMARK   10  A    between atoms: C1'_23  and  N9_24 
REMARK   11  A    between atoms: C6_29  and  N6_30 
ROOT
HETATM    1  C4' ATP A 501      40.874  18.928  13.908  1.00  5.20     0.180 C 
HETATM    2  O4' ATP A 501      40.837  20.038  13.023  1.00  4.96    -0.353 OA
HETATM    3  C3' ATP A 501      40.289  19.512  15.182  1.00  5.52     0.182 C 
HETATM    4  C2' ATP A 501      40.886  20.909  15.233  1.00  4.80     0.198 C 
HETATM    5  C1' ATP A 501      41.180  21.215  13.767  1.00  4.22     0.262 C 
ENDROOT
BRANCH   5   6
HETATM    6  N9  ATP A 501      40.408  22.309  13.161  1.00  3.78    -0.297 N 
HETATM    7  C4  ATP A 501      39.068  22.487  13.175  1.00  3.29     0.142 A 
HETATM    8  N3  ATP A 501      38.118  21.768  13.813  1.00  4.79    -0.336 N 
HETATM    9  C5  ATP A 501      38.827  23.624  12.396  1.00  3.65     0.122 A 
HETATM   10  C2  ATP A 501      36.864  22.238  13.666  1.00  4.70     0.183 A 
HETATM   12  N1  ATP A 501      36.537  23.319  12.906  1.00  4.95    -0.337 N 
HETATM   13  C6  ATP A 501      37.501  24.035  12.261  1.00  4.22     0.131 A 
HETATM   15  N7  ATP A 501      40.003  24.141  11.938  1.00  4.47    -0.346 N 
HETATM   16  C8  ATP A 501      40.949  23.312  12.402  1.00  4.18     0.188 A 
BRANCH  13  18
HETATM   18  N6  ATP A 501      37.110  25.041  11.469  1.00  5.27    -0.383 N 
ATOM     19  H62 ATP A 501      36.522  25.768  11.875  1.00  0.00     0.157 HD
ATOM     20  H61 ATP A 501      37.312  25.087  10.470  1.00  0.00     0.157 HD
ENDBRANCH  13  18
ENDBRANCH   5   6
BRANCH   4  21
HETATM   21  O2' ATP A 501      42.072  20.928  16.001  1.00  6.19    -0.388 OA
ATOM     22  H2' ATP A 501      41.896  21.193  16.896  1.00  0.00     0.210 HD
ENDBRANCH   4  21
BRANCH   3  23
HETATM   23  O3' ATP A 501      40.541  18.740  16.324  1.00  7.48    -0.390 OA
ATOM     24  H3' ATP A 501      41.218  19.092  16.889  1.00  0.00     0.210 HD
ENDBRANCH   3  23
BRANCH   1  25
HETATM   25  C5' ATP A 501      40.037  17.785  13.389  1.00  6.42     0.216 C 
BRANCH  25  26
HETATM   26  O5' ATP A 501      40.541  17.340  12.145  1.00  6.65    -0.287 OA
BRANCH  26  27
HETATM   27  PA  ATP A 501      41.475  16.066  12.015  1.00  6.54     0.417 P 
HETATM   28  O2A ATP A 501      40.791  14.847  12.584  1.00  7.34    -0.624 OA
HETATM   29  O1A ATP A 501      41.969  16.083  10.620  1.00  8.18    -0.624 OA
BRANCH  27  30
HETATM   30  O3A ATP A 501      42.671  16.389  13.048  1.00  6.94    -0.180 OA
BRANCH  30  31
HETATM   31  PB  ATP A 501      43.958  15.472  13.330  1.00  6.53     0.428 P 
HETATM   32  O1B ATP A 501      45.006  16.280  13.974  1.00  8.60    -0.624 OA
HETATM   33  O2B ATP A 501      43.529  14.236  14.050  1.00  5.78    -0.624 OA
BRANCH  31  34
HETATM   34  O3B ATP A 501      44.329  15.162  11.814  1.00  7.50    -0.173 OA
BRANCH  34  35
HETATM   35  PG  ATP A 501      45.049  13.828  11.273  1.00  8.07     0.431 P 
HETATM   36  O2G ATP A 501      45.531  14.177   9.885  1.00  9.86    -0.616 OA
HETATM   37  O3G ATP A 501      43.928  12.792  11.219  1.00  9.14    -0.616 OA
HETATM   38  O1G ATP A 501      46.140  13.491  12.258  1.00  6.46    -0.616 OA
ENDBRANCH  34  35
ENDBRANCH  31  34
ENDBRANCH  30  31
ENDBRANCH  27  30
ENDBRANCH  26  27
ENDBRANCH  25  26
ENDBRANCH   1  25
TORSDOF 11
ENDMDL
MODEL 5
REMARK VINA RESULT:      -8.4      5.828      8.019
REMARK  11 active torsions:
REMARK  status: ('A' for Active; 'I' for Inactive)
REMARK    1  A    between atoms: PG_1  and  O3B_8 
REMARK    2  A    between atoms: PB_5  and  O3A_12 
REMARK    3  A    between atoms: PB_5  and  O3B_8 
REMARK    4  A    between atoms: PA_9  and  O5'_13 
REMARK    5  A    between atoms: PA_9  and  O3A_12 
REMARK    6  A    between atoms: O5'_13  and  C5'_14 
REMARK    7  A    between atoms: C5'_14  and  C4'_15 
REMARK    8  A    between atoms: C3'_17  and  O3'_18 
REMARK    9  A    between atoms: C2'_20  and  O2'_21 
REMARK   10  A    between atoms: C1'_23  and  N9_24 
REMARK   11  A    between atoms: C6_29  and  N6_30 
ROOT
HETATM    1  C4' ATP A 501      44.584  18.540  13.161  1.00  5.20     0.180 C 
HETATM    2  O4' ATP A 501      45.368  18.409  14.337  1.00  4.96    -0.353 OA
HETATM    3  C3' ATP A 501      45.643  18.710  12.085  1.00  5.52     0.182 C 
HETATM    4  C2' ATP A 501      46.682  19.596  12.754  1.00  4.80     0.198 C 
HETATM    5  C1' ATP A 501      46.479  19.310  14.239  1.00  4.22     0.262 C 
ENDROOT
BRANCH   5   6
HETATM    6  N9  ATP A 501      47.592  18.650  14.935  1.00  3.78    -0.297 N 
HETATM    7  C4  ATP A 501      47.744  18.460  16.265  1.00  3.29     0.142 A 
HETATM    8  N3  ATP A 501      46.888  18.743  17.271  1.00  4.79    -0.336 N 
HETATM    9  C5  ATP A 501      48.999  17.861  16.422  1.00  3.65     0.122 A 
HETATM   10  C2  ATP A 501      47.321  18.382  18.495  1.00  4.70     0.183 A 
HETATM   12  N1  ATP A 501      48.536  17.821  18.742  1.00  4.95    -0.337 N 
HETATM   13  C6  ATP A 501      49.396  17.543  17.721  1.00  4.22     0.131 A 
HETATM   15  N7  ATP A 501      49.587  17.667  15.206  1.00  4.47    -0.346 N 
HETATM   16  C8  ATP A 501      48.718  18.173  14.319  1.00  4.18     0.188 A 
BRANCH  13  18
HETATM   18  N6  ATP A 501      50.605  17.061  18.034  1.00  5.27    -0.383 N 
ATOM     19  H62 ATP A 501      50.985  17.285  18.953  1.00  0.00     0.157 HD
ATOM     20  H61 ATP A 501      51.193  16.540  17.384  1.00  0.00     0.157 HD
ENDBRANCH  13  18
ENDBRANCH   5   6
BRANCH   4  21
HETATM   21  O2' ATP A 501      46.450  20.960  12.464  1.00  6.19    -0.388 OA
ATOM     22  H2' ATP A 501      45.922  21.058  11.681  1.00  0.00     0.210 HD
ENDBRANCH   4  21
BRANCH   3  23
HETATM   23  O3' ATP A 501      45.145  19.221  10.879  1.00  7.48    -0.390 OA
ATOM     24  H3' ATP A 501      45.559  20.029  10.600  1.00  0.00     0.210 HD
ENDBRANCH   3  23
BRANCH   1  25
HETATM   25  C5' ATP A 501      43.745  17.311  12.921  1.00  6.42     0.216 C 
BRANCH  25  26
HETATM   26  O5' ATP A 501      42.418  17.683  12.602  1.00  6.65    -0.287 OA
BRANCH  26  27
HETATM   27  PA  ATP A 501      41.224  17.533  13.633  1.00  6.54     0.417 P 
HETATM   28  O2A ATP A 501      40.035  16.877  12.976  1.00  7.34    -0.624 OA
HETATM   29  O1A ATP A 501      41.832  16.964  14.856  1.00  8.18    -0.624 OA
BRANCH  27  30
HETATM   30  O3A ATP A 501      40.768  19.061  13.879  1.00  6.94    -0.180 OA
BRANCH  30  31
HETATM   31  PB  ATP A 501      41.270  20.024  15.063  1.00  6.53     0.428 P 
HETATM   32  O1B ATP A 501      40.587  19.661  16.315  1.00  8.60    -0.624 OA
HETATM   33  O2B ATP A 501      42.763  20.024  15.092  1.00  5.78    -0.624 OA
BRANCH  31  34
HETATM   34  O3B ATP A 501      40.700  21.388  14.477  1.00  7.50    -0.173 OA
BRANCH  34  35
HETATM   35  PG  ATP A 501      40.876  21.913  12.966  1.00  8.07     0.431 P 
HETATM   36  O2G ATP A 501      42.126  21.236  12.457  1.00  9.86    -0.616 OA
HETATM   37  O3G ATP A 501      41.089  23.418  13.114  1.00  9.14    -0.616 OA
HETATM   38  O1G ATP A 501      39.611  21.549  12.227  1.00  6.46    -0.616 OA
ENDBRANCH  34  35
ENDBRANCH  31  34
ENDBRANCH  30  31
ENDBRANCH  27  30
ENDBRANCH  26  27
ENDBRANCH  25  26
ENDBRANCH   1  25
TORSDOF 11
ENDMDL
MODEL 6
REMARK VINA RESULT:      -8.3      1.517      2.657
REMARK  11 active torsions:
REMARK  status: ('A' for Active; 'I' for Inactive)
REMARK    1  A    between atoms: PG_1  and  O3B_8 
REMARK    2  A    between atoms: PB_5  and  O3A_12 
REMARK    3  A    between atoms: PB_5  and  O3B_8 
REMARK    4  A    between atoms: PA_9  and  O5'_13 
REMARK    5  A    between atoms: PA_9  and  O3A_12 
REMARK    6  A    between atoms: O5'_13  and  C5'_14 
REMARK    7  A    between atoms: C5'_14  and  C4'_15 
REMARK    8  A    between atoms: C3'_17  and  O3'_18 
REMARK    9  A    between atoms: C2'_20  and  O2'_21 
REMARK   10  A    between atoms: C1'_23  and  N9_24 
REMARK   11  A    between atoms: C6_29  and  N6_30 
ROOT
HETATM    1  C4' ATP A 501      40.558  20.017  13.153  1.00  5.20     0.180 C 
HETATM    2  O4' ATP A 501      39.334  20.541  12.660  1.00  4.96    -0.353 OA
HETATM    3  C3' ATP A 501      40.913  21.004  14.251  1.00  5.52     0.182 C 
HETATM    4  C2' ATP A 501      40.514  22.346  13.657  1.00  4.80     0.198 C 
HETATM    5  C1' ATP A 501      39.432  21.972  12.649  1.00  4.22     0.262 C 
ENDROOT
BRANCH   5   6
HETATM    6  N9  ATP A 501      38.078  22.467  12.931  1.00  3.78    -0.297 N 
HETATM    7  C4  ATP A 501      37.444  23.521  12.368  1.00  3.29     0.142 A 
HETATM    8  N3  ATP A 501      37.851  24.321  11.357  1.00  4.79    -0.336 N 
HETATM    9  C5  ATP A 501      36.217  23.626  13.032  1.00  3.65     0.122 A 
HETATM   10  C2  ATP A 501      36.958  25.261  10.991  1.00  4.70     0.183 A 
HETATM   12  N1  ATP A 501      35.755  25.451  11.599  1.00  4.95    -0.337 N 
HETATM   13  C6  ATP A 501      35.355  24.643  12.621  1.00  4.22     0.131 A 
HETATM   15  N7  ATP A 501      36.097  22.636  13.964  1.00  4.47    -0.346 N 
HETATM   16  C8  ATP A 501      37.250  21.956  13.895  1.00  4.18     0.188 A 
BRANCH  13  18
HETATM   18  N6  ATP A 501      34.196  24.926  13.228  1.00  5.27    -0.383 N 
ATOM     19  H62 ATP A 501      33.754  24.193  13.781  1.00  0.00     0.157 HD
ATOM     20  H61 ATP A 501      33.698  25.810  13.116  1.00  0.00     0.157 HD
ENDBRANCH  13  18
ENDBRANCH   5   6
BRANCH   4  21
HETATM   21  O2' ATP A 501      41.611  22.965  13.016  1.00  6.19    -0.388 OA
ATOM     22  H2' ATP A 501      42.043  23.581  13.597  1.00  0.00     0.210 HD
ENDBRANCH   4  21
BRANCH   3  23
HETATM   23  O3' ATP A 501      42.251  20.934  14.661  1.00  7.48    -0.390 OA
ATOM     24  H3' ATP A 501      42.795  21.641  14.333  1.00  0.00     0.210 HD
ENDBRANCH   3  23
BRANCH   1  25
HETATM   25  C5' ATP A 501      40.376  18.623  13.700  1.00  6.42     0.216 C 
BRANCH  25  26
HETATM   26  O5' ATP A 501      41.007  17.683  12.853  1.00  6.65    -0.287 OA
BRANCH  26  27
HETATM   27  PA  ATP A 501      42.386  16.997  13.225  1.00  6.54     0.417 P 
HETATM   28  O2A ATP A 501      42.171  15.870  14.204  1.00  7.34    -0.624 OA
HETATM   29  O1A ATP A 501      43.070  16.766  11.933  1.00  8.18    -0.624 OA
BRANCH  27  30
HETATM   30  O3A ATP A 501      43.141  18.143  14.073  1.00  6.94    -0.180 OA
BRANCH  30  31
HETATM   31  PB  ATP A 501      44.703  18.179  14.444  1.00  6.53     0.428 P 
HETATM   32  O1B ATP A 501      45.007  19.422  15.172  1.00  8.60    -0.624 OA
HETATM   33  O2B ATP A 501      45.074  16.900  15.121  1.00  5.78    -0.624 OA
BRANCH  31  34
HETATM   34  O3B ATP A 501      45.269  18.235  12.958  1.00  7.50    -0.173 OA
BRANCH  34  35
HETATM   35  PG  ATP A 501      45.490  19.568  12.083  1.00  8.07     0.431 P 
HETATM   36  O2G ATP A 501      45.781  19.076  10.685  1.00  9.86    -0.616 OA
HETATM   37  O3G ATP A 501      46.724  20.222  12.701  1.00  9.14    -0.616 OA
HETATM   38  O1G ATP A 501      44.233  20.392  12.218  1.00  6.46    -0.616 OA
ENDBRANCH  34  35
ENDBRANCH  31  34
ENDBRANCH  30  31
ENDBRANCH  27  30
ENDBRANCH  26  27
ENDBRANCH  25  26
ENDBRANCH   1  25
TORSDOF 11
ENDMDL
MODEL 7
REMARK VINA RESULT:      -8.0      2.031      3.520
REMARK  11 active torsions:
REMARK  status: ('A' for Active; 'I' for Inactive)
REMARK    1  A    between atoms: PG_1  and  O3B_8 
REMARK    2  A    between atoms: PB_5  and  O3A_12 
REMARK    3  A    between atoms: PB_5  and  O3B_8 
REMARK    4  A    between atoms: PA_9  and  O5'_13 
REMARK    5  A    between atoms: PA_9  and  O3A_12 
REMARK    6  A    between atoms: O5'_13  and  C5'_14 
REMARK    7  A    between atoms: C5'_14  and  C4'_15 
REMARK    8  A    between atoms: C3'_17  and  O3'_18 
REMARK    9  A    between atoms: C2'_20  and  O2'_21 
REMARK   10  A    between atoms: C1'_23  and  N9_24 
REMARK   11  A    between atoms: C6_29  and  N6_30 
ROOT
HETATM    1  C4' ATP A 501      42.210  19.553  14.285  1.00  5.20     0.180 C 
HETATM    2  O4' ATP A 501      41.716  20.884  14.258  1.00  4.96    -0.353 OA
HETATM    3  C3' ATP A 501      41.197  18.816  13.427  1.00  5.52     0.182 C 
HETATM    4  C2' ATP A 501      39.873  19.448  13.829  1.00  4.80     0.198 C 
HETATM    5  C1' ATP A 501      40.285  20.832  14.323  1.00  4.22     0.262 C 
ENDROOT
BRANCH   5   6
HETATM    6  N9  ATP A 501      39.807  21.975  13.532  1.00  3.78    -0.297 N 
HETATM    7  C4  ATP A 501      38.536  22.412  13.388  1.00  3.29     0.142 A 
HETATM    8  N3  ATP A 501      37.409  21.974  13.992  1.00  4.79    -0.336 N 
HETATM    9  C5  ATP A 501      38.599  23.473  12.477  1.00  3.65     0.122 A 
HETATM   10  C2  ATP A 501      36.296  22.660  13.667  1.00  4.70     0.183 A 
HETATM   12  N1  ATP A 501      36.262  23.685  12.772  1.00  4.95    -0.337 N 
HETATM   13  C6  ATP A 501      37.403  24.117  12.164  1.00  4.22     0.131 A 
HETATM   15  N7  ATP A 501      39.891  23.692  12.096  1.00  4.47    -0.346 N 
HETATM   16  C8  ATP A 501      40.604  22.755  12.738  1.00  4.18     0.188 A 
BRANCH  13  18
HETATM   18  N6  ATP A 501      37.294  25.077  11.238  1.00  5.27    -0.383 N 
ATOM     19  H62 ATP A 501      37.957  25.851  11.272  1.00  0.00     0.157 HD
ATOM     20  H61 ATP A 501      36.549  25.113  10.542  1.00  0.00     0.157 HD
ENDBRANCH  13  18
ENDBRANCH   5   6
BRANCH   4  21
HETATM   21  O2' ATP A 501      39.247  18.708  14.858  1.00  6.19    -0.388 OA
ATOM     22  H2' ATP A 501      39.876  18.165  15.319  1.00  0.00     0.210 HD
ENDBRANCH   4  21
BRANCH   3  23
HETATM   23  O3' ATP A 501      41.236  17.424  13.579  1.00  7.48    -0.390 OA
ATOM     24  H3' ATP A 501      40.595  17.082  14.191  1.00  0.00     0.210 HD
ENDBRANCH   3  23
BRANCH   1  25
HETATM   25  C5' ATP A 501      43.596  19.471  13.696  1.00  6.42     0.216 C 
BRANCH  25  26
HETATM   26  O5' ATP A 501      44.420  18.655  14.505  1.00  6.65    -0.287 OA
BRANCH  26  27
HETATM   27  PA  ATP A 501      44.935  17.234  14.029  1.00  6.54     0.417 P 
HETATM   28  O2A ATP A 501      45.123  16.314  15.210  1.00  7.34    -0.624 OA
HETATM   29  O1A ATP A 501      44.056  16.857  12.899  1.00  8.18    -0.624 OA
BRANCH  27  30
HETATM   30  O3A ATP A 501      46.429  17.548  13.508  1.00  6.94    -0.180 OA
BRANCH  30  31
HETATM   31  PB  ATP A 501      46.915  17.586  11.978  1.00  6.53     0.428 P 
HETATM   32  O1B ATP A 501      45.908  18.282  11.160  1.00  8.60    -0.624 OA
HETATM   33  O2B ATP A 501      48.308  18.121  11.921  1.00  5.78    -0.624 OA
BRANCH  31  34
HETATM   34  O3B ATP A 501      46.883  16.019  11.710  1.00  7.50    -0.173 OA
BRANCH  34  35
HETATM   35  PG  ATP A 501      47.153  15.298  10.297  1.00  8.07     0.431 P 
HETATM   36  O2G ATP A 501      48.402  14.476  10.507  1.00  9.86    -0.616 OA
HETATM   37  O3G ATP A 501      47.413  16.451   9.330  1.00  9.14    -0.616 OA
HETATM   38  O1G ATP A 501      45.915  14.499   9.971  1.00  6.46    -0.616 OA
ENDBRANCH  34  35
ENDBRANCH  31  34
ENDBRANCH  30  31
ENDBRANCH  27  30
ENDBRANCH  26  27
ENDBRANCH  25  26
ENDBRANCH   1  25
TORSDOF 11
ENDMDL
MODEL 8
REMARK VINA RESULT:      -7.9      2.080      3.575
REMARK  11 active torsions:
REMARK  status: ('A' for Active; 'I' for Inactive)
REMARK    1  A    between atoms: PG_1  and  O3B_8 
REMARK    2  A    between atoms: PB_5  and  O3A_12 
REMARK    3  A    between atoms: PB_5  and  O3B_8 
REMARK    4  A    between atoms: PA_9  and  O5'_13 
REMARK    5  A    between atoms: PA_9  and  O3A_12 
REMARK    6  A    between atoms: O5'_13  and  C5'_14 
REMARK    7  A    between atoms: C5'_14  and  C4'_15 
REMARK    8  A    between atoms: C3'_17  and  O3'_18 
REMARK    9  A    between atoms: C2'_20  and  O2'_21 
REMARK   10  A    between atoms: C1'_23  and  N9_24 
REMARK   11  A    between atoms: C6_29  and  N6_30 
ROOT
HETATM    1  C4' ATP A 501      42.208  17.679  13.793  1.00  5.20     0.180 C 
HETATM    2  O4' ATP A 501      42.108  19.085  13.969  1.00  4.96    -0.353 OA
HETATM    3  C3' ATP A 501      41.006  17.379  12.914  1.00  5.52     0.182 C 
HETATM    4  C2' ATP A 501      39.925  18.288  13.476  1.00  4.80     0.198 C 
HETATM    5  C1' ATP A 501      40.722  19.421  14.117  1.00  4.22     0.262 C 
ENDROOT
BRANCH   5   6
HETATM    6  N9  ATP A 501      40.567  20.751  13.511  1.00  3.78    -0.297 N 
HETATM    7  C4  ATP A 501      39.439  21.490  13.408  1.00  3.29     0.142 A 
HETATM    8  N3  ATP A 501      38.207  21.241  13.903  1.00  4.79    -0.336 N 
HETATM    9  C5  ATP A 501      39.799  22.633  12.684  1.00  3.65     0.122 A 
HETATM   10  C2  ATP A 501      37.300  22.208  13.666  1.00  4.70     0.183 A 
HETATM   12  N1  ATP A 501      37.556  23.337  12.949  1.00  4.95    -0.337 N 
HETATM   13  C6  ATP A 501      38.801  23.579  12.450  1.00  4.22     0.131 A 
HETATM   15  N7  ATP A 501      41.128  22.599  12.377  1.00  4.47    -0.346 N 
HETATM   16  C8  ATP A 501      41.568  21.435  12.876  1.00  4.18     0.188 A 
BRANCH  13  18
HETATM   18  N6  ATP A 501      38.971  24.667  11.690  1.00  5.27    -0.383 N 
ATOM     19  H62 ATP A 501      38.301  25.429  11.790  1.00  0.00     0.157 HD
ATOM     20  H61 ATP A 501      39.692  24.752  10.973  1.00  0.00     0.157 HD
ENDBRANCH  13  18
ENDBRANCH   5   6
BRANCH   4  21
HETATM   21  O2' ATP A 501      39.142  17.612  14.440  1.00  6.19    -0.388 OA
ATOM     22  H2' ATP A 501      38.717  18.226  15.026  1.00  0.00     0.210 HD
ENDBRANCH   4  21
BRANCH   3  23
HETATM   23  O3' ATP A 501      40.655  16.023  12.883  1.00  7.48    -0.390 OA
ATOM     24  H3' ATP A 501      40.609  15.614  13.740  1.00  0.00     0.210 HD
ENDBRANCH   3  23
BRANCH   1  25
HETATM   25  C5' ATP A 501      43.499  17.302  13.112  1.00  6.42     0.216 C 
BRANCH  25  26
HETATM   26  O5' ATP A 501      44.225  18.467  12.768  1.00  6.65    -0.287 OA
BRANCH  26  27
HETATM   27  PA  ATP A 501      45.786  18.444  12.497  1.00  6.54     0.417 P 
HETATM   28  O2A ATP A 501      46.133  17.380  11.485  1.00  7.34    -0.624 OA
HETATM   29  O1A ATP A 501      46.167  19.858  12.280  1.00  8.18    -0.624 OA
BRANCH  27  30
HETATM   30  O3A ATP A 501      46.386  17.900  13.892  1.00  6.94    -0.180 OA
BRANCH  30  31
HETATM   31  PB  ATP A 501      47.930  17.915  14.334  1.00  6.53     0.428 P 
HETATM   32  O1B ATP A 501      48.348  16.553  14.704  1.00  8.60    -0.624 OA
HETATM   33  O2B ATP A 501      48.734  18.597  13.277  1.00  5.78    -0.624 OA
BRANCH  31  34
HETATM   34  O3B ATP A 501      47.768  18.831  15.624  1.00  7.50    -0.173 OA
BRANCH  34  35
HETATM   35  PG  ATP A 501      46.523  18.814  16.644  1.00  8.07     0.431 P 
HETATM   36  O2G ATP A 501      46.047  17.381  16.658  1.00  9.86    -0.616 OA
HETATM   37  O3G ATP A 501      45.490  19.729  15.991  1.00  9.14    -0.616 OA
HETATM   38  O1G ATP A 501      47.037  19.326  17.968  1.00  6.46    -0.616 OA
ENDBRANCH  34  35
ENDBRANCH  31  34
ENDBRANCH  30  31
ENDBRANCH  27  30
ENDBRANCH  26  27
ENDBRANCH  25  26
ENDBRANCH   1  25
TORSDOF 11
ENDMDL
MODEL 9
REMARK VINA RESULT:      -7.9      3.042      4.532
REMARK  11 active torsions:
REMARK  status: ('A' for Active; 'I' for Inactive)
REMARK    1  A    between atoms: PG_1  and  O3B_8 
REMARK    2  A    between atoms: PB_5  and  O3A_12 
REMARK    3  A    between atoms: PB_5  and  O3B_8 
REMARK    4  A    between atoms: PA_9  and  O5'_13 
REMARK    5  A    between atoms: PA_9  and  O3A_12 
REMARK    6  A    between atoms: O5'_13  and  C5'_14 
REMARK    7  A    between atoms: C5'_14  and  C4'_15 
REMARK    8  A    between atoms: C3'_17  and  O3'_18 
REMARK    9  A    between atoms: C2'_20  and  O2'_21 
REMARK   10  A    between atoms: C1'_23  and  N9_24 
REMARK   11  A    between atoms: C6_29  and  N6_30 
ROOT
HETATM    1  C4' ATP A 501      44.586  18.791  13.058  1.00  5.20     0.180 C 
HETATM    2  O4' ATP A 501      43.419  19.569  12.831  1.00  4.96    -0.353 OA
HETATM    3  C3' ATP A 501      44.444  18.417  14.523  1.00  5.52     0.182 C 
HETATM    4  C2' ATP A 501      43.894  19.685  15.156  1.00  4.80     0.198 C 
HETATM    5  C1' ATP A 501      43.186  20.375  13.994  1.00  4.22     0.262 C 
ENDROOT
BRANCH   5   6
HETATM    6  N9  ATP A 501      41.726  20.505  14.103  1.00  3.78    -0.297 N 
HETATM    7  C4  ATP A 501      40.934  21.458  13.561  1.00  3.29     0.142 A 
HETATM    8  N3  ATP A 501      41.262  22.465  12.722  1.00  4.79    -0.336 N 
HETATM    9  C5  ATP A 501      39.641  21.185  14.022  1.00  3.65     0.122 A 
HETATM   10  C2  ATP A 501      40.223  23.221  12.319  1.00  4.70     0.183 A 
HETATM   12  N1  ATP A 501      38.940  23.044  12.738  1.00  4.95    -0.337 N 
HETATM   13  C6  ATP A 501      38.618  22.028  13.589  1.00  4.22     0.131 A 
HETATM   15  N7  ATP A 501      39.645  20.071  14.810  1.00  4.47    -0.346 N 
HETATM   16  C8  ATP A 501      40.929  19.687  14.858  1.00  4.18     0.188 A 
BRANCH  13  18
HETATM   18  N6  ATP A 501      37.355  21.952  14.025  1.00  5.27    -0.383 N 
ATOM     19  H62 ATP A 501      37.172  21.403  14.864  1.00  0.00     0.157 HD
ATOM     20  H61 ATP A 501      36.559  22.356  13.531  1.00  0.00     0.157 HD
ENDBRANCH  13  18
ENDBRANCH   5   6
BRANCH   4  21
HETATM   21  O2' ATP A 501      44.935  20.493  15.666  1.00  6.19    -0.388 OA
ATOM     22  H2' ATP A 501      44.767  21.413  15.500  1.00  0.00     0.210 HD
ENDBRANCH   4  21
BRANCH   3  23
HETATM   23  O3' ATP A 501      45.632  17.956  15.105  1.00  7.48    -0.390 OA
ATOM     24  H3' ATP A 501      45.957  17.144  14.734  1.00  0.00     0.210 HD
ENDBRANCH   3  23
BRANCH   1  25
HETATM   25  C5' ATP A 501      44.609  17.569  12.175  1.00  6.42     0.216 C 
BRANCH  25  26
HETATM   26  O5' ATP A 501      45.854  16.908  12.294  1.00  6.65    -0.287 OA
BRANCH  26  27
HETATM   27  PA  ATP A 501      47.108  17.294  11.405  1.00  6.54     0.417 P 
HETATM   28  O2A ATP A 501      47.926  16.069  11.080  1.00  7.34    -0.624 OA
HETATM   29  O1A ATP A 501      46.574  18.164  10.332  1.00  8.18    -0.624 OA
BRANCH  27  30
HETATM   30  O3A ATP A 501      48.024  18.144  12.425  1.00  6.94    -0.180 OA
BRANCH  30  31
HETATM   31  PB  ATP A 501      48.792  17.573  13.714  1.00  6.53     0.428 P 
HETATM   32  O1B ATP A 501      48.136  16.337  14.170  1.00  8.60    -0.624 OA
HETATM   33  O2B ATP A 501      50.252  17.483  13.412  1.00  5.78    -0.624 OA
BRANCH  31  34
HETATM   34  O3B ATP A 501      48.476  18.782  14.698  1.00  7.50    -0.173 OA
BRANCH  34  35
HETATM   35  PG  ATP A 501      48.848  18.849  16.262  1.00  8.07     0.431 P 
HETATM   36  O2G ATP A 501      47.576  19.279  16.951  1.00  9.86    -0.616 OA
HETATM   37  O3G ATP A 501      49.914  19.939  16.348  1.00  9.14    -0.616 OA
HETATM   38  O1G ATP A 501      49.349  17.479  16.649  1.00  6.46    -0.616 OA
ENDBRANCH  34  35
ENDBRANCH  31  34
ENDBRANCH  30  31
ENDBRANCH  27  30
ENDBRANCH  26  27
ENDBRANCH  25  26
ENDBRANCH   1  25
TORSDOF 11
ENDMDL
