MODEL 1
REMARK VINA RESULT:      -9.8      0.000      0.000
REMARK  11 active torsions:
REMARK  status: ('A' for Active; 'I' for Inactive)
REMARK    1  A    between atoms: PG_1  and  O3B_8 
REMARK    2  A    between atoms: PB_5  and  O3A_12 
REMARK    3  A    between atoms: PB_5  and  O3B_8 
REMARK    4  A    between atoms: PA_9  and  O5'_13 
REMARK    5  A    between atoms: PA_9  and  O3A_12 
REMARK    6  A    between atoms: O5'_13  and  C5'_14 
REMARK    7  A    between atoms: C5'_14  and  C4'_15 
REMARK    8  A    between atoms: C3'_17  and  O3'_18 
REMARK    9  A    between atoms: C2'_20  and  O2'_21 
REMARK   10  A    between atoms: C1'_23  and  N9_24 
REMARK   11  A    between atoms: C6_29  and  N6_30 
ROOT
HETATM    1  C4' ATP A 501      40.964  18.800  14.022  1.00  5.20     0.180 C 
HETATM    2  O4' ATP A 501      40.959  19.904  13.128  1.00  4.96    -0.353 OA
HETATM    3  C3' ATP A 501      40.336  19.394  15.271  1.00  5.52     0.182 C 
HETATM    4  C2' ATP A 501      40.932  20.791  15.332  1.00  4.80     0.198 C 
HETATM    5  C1' ATP A 501      41.276  21.086  13.875  1.00  4.22     0.262 C 
ENDROOT
BRANCH   5   6
HETATM    6  N9  ATP A 501      40.526  22.176  13.234  1.00  3.78    -0.297 N 
HETATM    7  C4  ATP A 501      39.191  22.387  13.251  1.00  3.29     0.142 A 
HETATM    8  N3  ATP A 501      38.229  21.715  13.922  1.00  4.79    -0.336 N 
HETATM    9  C5  ATP A 501      38.971  23.500  12.432  1.00  3.65     0.122 A 
HETATM   10  C2  ATP A 501      36.986  22.210  13.766  1.00  4.70     0.183 A 
HETATM   12  N1  ATP A 501      36.678  23.270  12.969  1.00  4.95    -0.337 N 
HETATM   13  C6  ATP A 501      37.655  23.939  12.292  1.00  4.22     0.131 A 
HETATM   15  N7  ATP A 501      40.157  23.972  11.948  1.00  4.47    -0.346 N 
HETATM   16  C8  ATP A 501      41.085  23.137  12.436  1.00  4.18     0.188 A 
BRANCH  13  18
HETATM   18  N6  ATP A 501      37.282  24.924  11.466  1.00  5.27    -0.383 N 
ATOM     19  H62 ATP A 501      36.337  25.295  11.561  1.00  0.00     0.157 HD
ATOM     20  H61 ATP A 501      37.865  25.278  10.707  1.00  0.00     0.157 HD
ENDBRANCH  13  18
ENDBRANCH   5   6
BRANCH   4  21
HETATM   21  O2' ATP A 501      42.091  20.816  16.141  1.00  6.19    -0.388 OA
ATOM     22  H2' ATP A 501      41.969  21.378  16.896  1.00  0.00     0.210 HD
ENDBRANCH   4  21
BRANCH   3  23
HETATM   23  O3' ATP A 501      40.548  18.630  16.427  1.00  7.48    -0.390 OA
ATOM     24  H3' ATP A 501      40.998  19.095  17.122  1.00  0.00     0.210 HD
ENDBRANCH   3  23
BRANCH   1  25
HETATM   25  C5' ATP A 501      40.145  17.654  13.483  1.00  6.42     0.216 C 
BRANCH  25  26
HETATM   26  O5' ATP A 501      40.631  17.265  12.213  1.00  6.65    -0.287 OA
BRANCH  26  27
HETATM   27  PA  ATP A 501      41.500  15.956  12.002  1.00  6.54     0.417 P 
HETATM   28  O2A ATP A 501      40.742  14.737  12.465  1.00  7.34    -0.624 OA
HETATM   29  O1A ATP A 501      42.023  16.052  10.621  1.00  8.18    -0.624 OA
BRANCH  27  30
HETATM   30  O3A ATP A 501      42.689  16.137  13.077  1.00  6.94    -0.180 OA
BRANCH  30  31
HETATM   31  PB  ATP A 501      44.130  16.789  12.800  1.00  6.53     0.428 P 
HETATM   32  O1B ATP A 501      45.008  15.791  12.168  1.00  8.60    -0.624 OA
HETATM   33  O2B ATP A 501      43.950  18.080  12.070  1.00  5.78    -0.624 OA
BRANCH  31  34
HETATM   34  O3B ATP A 501      44.543  17.032  14.317  1.00  7.50    -0.173 OA
BRANCH  34  35
HETATM   35  PG  ATP A 501      45.482  18.222  14.860  1.00  8.07     0.431 P 
HETATM   36  O2G ATP A 501      45.983  17.745  16.202  1.00  9.86    -0.616 OA
HETATM   37  O3G ATP A 501      44.531  19.407  15.019  1.00  9.14    -0.616 OA
HETATM   38  O1G ATP A 501      46.555  18.439  13.822  1.00  6.46    -0.616 OA
ENDBRANCH  34  35
ENDBRANCH  31  34
ENDBRANCH  30  31
ENDBRANCH  27  30
ENDBRANCH  26  27
ENDBRANCH  25  26
ENDBRANCH   1  25
TORSDOF 11
ENDMDL
MODEL 2
REMARK VINA RESULT:      -9.1      1.397      3.376
REMARK  11 active torsions:
REMARK  status: ('A' for Active; 'I' for Inactive)
REMARK    1  A    between atoms: PG_1  and  O3B_8 
REMARK    2  A    between atoms: PB_5  and  O3A_12 
REMARK    3  A    between atoms: PB_5  and  O3B_8 
REMARK    4  A    between atoms: PA_9  and  O5'_13 
REMARK    5  A    between atoms: PA_9  and  O3A_12 
REMARK    6  A    between atoms: O5'_13  and  C5'_14 
REMARK    7  A    between atoms: C5'_14  and  C4'_15 
REMARK    8  A    between atoms: C3'_17  and  O3'_18 
REMARK    9  A    between atoms: C2'_20  and  O2'_21 
REMARK   10  A    between atoms: C1'_23  and  N9_24 
REMARK   11  A    between atoms: C6_29  and  N6_30 
ROOT
HETATM    1  C4' ATP A 501      42.126  19.779  14.703  1.00  5.20     0.180 C 
HETATM    2  O4' ATP A 501      41.519  21.058  14.593  1.00  4.96    -0.353 OA
HETATM    3  C3' ATP A 501      41.334  18.959  13.699  1.00  5.52     0.182 C 
HETATM    4  C2' ATP A 501      39.910  19.460  13.885  1.00  4.80     0.198 C 
HETATM    5  C1' ATP A 501      40.107  20.871  14.431  1.00  4.22     0.262 C 
ENDROOT
BRANCH   5   6
HETATM    6  N9  ATP A 501      39.654  21.974  13.571  1.00  3.78    -0.297 N 
HETATM    7  C4  ATP A 501      38.392  22.427  13.397  1.00  3.29     0.142 A 
HETATM    8  N3  ATP A 501      37.255  22.050  14.023  1.00  4.79    -0.336 N 
HETATM    9  C5  ATP A 501      38.478  23.428  12.423  1.00  3.65     0.122 A 
HETATM   10  C2  ATP A 501      36.157  22.736  13.655  1.00  4.70     0.183 A 
HETATM   12  N1  ATP A 501      36.145  23.705  12.698  1.00  4.95    -0.337 N 
HETATM   13  C6  ATP A 501      37.295  24.075  12.067  1.00  4.22     0.131 A 
HETATM   15  N7  ATP A 501      39.775  23.597  12.032  1.00  4.47    -0.346 N 
HETATM   16  C8  ATP A 501      40.467  22.687  12.732  1.00  4.18     0.188 A 
BRANCH  13  18
HETATM   18  N6  ATP A 501      37.208  24.979  11.084  1.00  5.27    -0.383 N 
ATOM     19  H62 ATP A 501      36.775  25.877  11.297  1.00  0.00     0.157 HD
ATOM     20  H61 ATP A 501      37.488  24.797  10.120  1.00  0.00     0.157 HD
ENDBRANCH  13  18
ENDBRANCH   5   6
BRANCH   4  21
HETATM   21  O2' ATP A 501      39.203  18.655  14.806  1.00  6.19    -0.388 OA
ATOM     22  H2' ATP A 501      38.722  17.967  14.360  1.00  0.00     0.210 HD
ENDBRANCH   4  21
BRANCH   3  23
HETATM   23  O3' ATP A 501      41.479  17.575  13.862  1.00  7.48    -0.390 OA
ATOM     24  H3' ATP A 501      40.749  17.157  14.303  1.00  0.00     0.210 HD
ENDBRANCH   3  23
BRANCH   1  25
HETATM   25  C5' ATP A 501      43.589  19.834  14.339  1.00  6.42     0.216 C 
BRANCH  25  26
HETATM   26  O5' ATP A 501      43.832  19.053  13.186  1.00  6.65    -0.287 OA
BRANCH  26  27
HETATM   27  PA  ATP A 501      45.263  18.961  12.510  1.00  6.54     0.417 P 
HETATM   28  O2A ATP A 501      45.142  18.997  11.006  1.00  7.34    -0.624 OA
HETATM   29  O1A ATP A 501      46.101  19.943  13.233  1.00  8.18    -0.624 OA
BRANCH  27  30
HETATM   30  O3A ATP A 501      45.726  17.455  12.852  1.00  6.94    -0.180 OA
BRANCH  30  31
HETATM   31  PB  ATP A 501      44.769  16.241  13.286  1.00  6.53     0.428 P 
HETATM   32  O1B ATP A 501      45.494  14.967  13.140  1.00  8.60    -0.624 OA
HETATM   33  O2B ATP A 501      44.191  16.531  14.631  1.00  5.78    -0.624 OA
BRANCH  31  34
HETATM   34  O3B ATP A 501      43.682  16.412  12.137  1.00  7.50    -0.173 OA
BRANCH  34  35
HETATM   35  PG  ATP A 501      42.553  15.336  11.739  1.00  8.07     0.431 P 
HETATM   36  O2G ATP A 501      43.210  14.435  10.721  1.00  9.86    -0.616 OA
HETATM   37  O3G ATP A 501      41.447  16.172  11.098  1.00  9.14    -0.616 OA
HETATM   38  O1G ATP A 501      42.133  14.651  13.017  1.00  6.46    -0.616 OA
ENDBRANCH  34  35
ENDBRANCH  31  34
ENDBRANCH  30  31
ENDBRANCH  27  30
ENDBRANCH  26  27
ENDBRANCH  25  26
ENDBRANCH   1  25
TORSDOF 11
ENDMDL
MODEL 3
REMARK VINA RESULT:      -8.8      1.486      2.620
REMARK  11 active torsions:
REMARK  status: ('A' for Active; 'I' for Inactive)
REMARK    1  A    between atoms: PG_1  and  O3B_8 
REMARK    2  A    between atoms: PB_5  and  O3A_12 
REMARK    3  A    between atoms: PB_5  and  O3B_8 
REMARK    4  A    between atoms: PA_9  and  O5'_13 
REMARK    5  A    between atoms: PA_9  and  O3A_12 
REMARK    6  A    between atoms: O5'_13  and  C5'_14 
REMARK    7  A    between atoms: C5'_14  and  C4'_15 
REMARK    8  A    between atoms: C3'_17  and  O3'_18 
REMARK    9  A    between atoms: C2'_20  and  O2'_21 
REMARK   10  A    between atoms: C1'_23  and  N9_24 
REMARK   11  A    between atoms: C6_29  and  N6_30 
ROOT
HETATM    1  C4' ATP A 501      42.207  19.596  14.363  1.00  5.20     0.180 C 
HETATM    2  O4' ATP A 501      41.707  20.924  14.292  1.00  4.96    -0.353 OA
HETATM    3  C3' ATP A 501      41.193  18.826  13.534  1.00  5.52     0.182 C 
HETATM    4  C2' ATP A 501      39.869  19.467  13.917  1.00  4.80     0.198 C 
HETATM    5  C1' ATP A 501      40.276  20.868  14.362  1.00  4.22     0.262 C 
ENDROOT
BRANCH   5   6
HETATM    6  N9  ATP A 501      39.793  21.982  13.535  1.00  3.78    -0.297 N 
HETATM    7  C4  ATP A 501      38.520  22.416  13.387  1.00  3.29     0.142 A 
HETATM    8  N3  ATP A 501      37.399  22.003  14.018  1.00  4.79    -0.336 N 
HETATM    9  C5  ATP A 501      38.576  23.442  12.437  1.00  3.65     0.122 A 
HETATM   10  C2  ATP A 501      36.283  22.677  13.679  1.00  4.70     0.183 A 
HETATM   12  N1  ATP A 501      36.242  23.668  12.746  1.00  4.95    -0.337 N 
HETATM   13  C6  ATP A 501      37.377  24.076  12.111  1.00  4.22     0.131 A 
HETATM   15  N7  ATP A 501      39.864  23.644  12.035  1.00  4.47    -0.346 N 
HETATM   16  C8  ATP A 501      40.582  22.731  12.704  1.00  4.18     0.188 A 
BRANCH  13  18
HETATM   18  N6  ATP A 501      37.261  25.001  11.151  1.00  5.27    -0.383 N 
ATOM     19  H62 ATP A 501      36.326  25.339  10.925  1.00  0.00     0.157 HD
ATOM     20  H61 ATP A 501      38.043  25.337  10.590  1.00  0.00     0.157 HD
ENDBRANCH  13  18
ENDBRANCH   5   6
BRANCH   4  21
HETATM   21  O2' ATP A 501      39.248  18.761  14.973  1.00  6.19    -0.388 OA
ATOM     22  H2' ATP A 501      39.890  18.292  15.494  1.00  0.00     0.210 HD
ENDBRANCH   4  21
BRANCH   3  23
HETATM   23  O3' ATP A 501      41.238  17.440  13.734  1.00  7.48    -0.390 OA
ATOM     24  H3' ATP A 501      40.901  17.158  14.576  1.00  0.00     0.210 HD
ENDBRANCH   3  23
BRANCH   1  25
HETATM   25  C5' ATP A 501      43.591  19.499  13.773  1.00  6.42     0.216 C 
BRANCH  25  26
HETATM   26  O5' ATP A 501      44.139  18.221  14.028  1.00  6.65    -0.287 OA
BRANCH  26  27
HETATM   27  PA  ATP A 501      44.668  17.278  12.869  1.00  6.54     0.417 P 
HETATM   28  O2A ATP A 501      43.879  15.992  12.831  1.00  7.34    -0.624 OA
HETATM   29  O1A ATP A 501      44.771  18.146  11.675  1.00  8.18    -0.624 OA
BRANCH  27  30
HETATM   30  O3A ATP A 501      46.132  16.850  13.392  1.00  6.94    -0.180 OA
BRANCH  30  31
HETATM   31  PB  ATP A 501      47.171  17.786  14.181  1.00  6.53     0.428 P 
HETATM   32  O1B ATP A 501      48.514  17.187  14.123  1.00  8.60    -0.624 OA
HETATM   33  O2B ATP A 501      47.042  19.188  13.682  1.00  5.78    -0.624 OA
BRANCH  31  34
HETATM   34  O3B ATP A 501      46.537  17.625  15.631  1.00  7.50    -0.173 OA
BRANCH  34  35
HETATM   35  PG  ATP A 501      46.681  18.672  16.845  1.00  8.07     0.431 P 
HETATM   36  O2G ATP A 501      48.077  19.233  16.718  1.00  9.86    -0.616 OA
HETATM   37  O3G ATP A 501      46.549  17.811  18.100  1.00  9.14    -0.616 OA
HETATM   38  O1G ATP A 501      45.572  19.683  16.683  1.00  6.46    -0.616 OA
ENDBRANCH  34  35
ENDBRANCH  31  34
ENDBRANCH  30  31
ENDBRANCH  27  30
ENDBRANCH  26  27
ENDBRANCH  25  26
ENDBRANCH   1  25
TORSDOF 11
ENDMDL
MODEL 4
REMARK VINA RESULT:      -8.5      1.706      2.810
REMARK  11 active torsions:
REMARK  status: ('A' for Active; 'I' for Inactive)
REMARK    1  A    between atoms: PG_1  and  O3B_8 
REMARK    2  A    between atoms: PB_5  and  O3A_12 
REMARK    3  A    between atoms: PB_5  and  O3B_8 
REMARK    4  A    between atoms: PA_9  and  O5'_13 
REMARK    5  A    between atoms: PA_9  and  O3A_12 
REMARK    6  A    between atoms: O5'_13  and  C5'_14 
REMARK    7  A    between atoms: C5'_14  and  C4'_15 
REMARK    8  A    between atoms: C3'_17  and  O3'_18 
REMARK    9  A    between atoms: C2'_20  and  O2'_21 
REMARK   10  A    between atoms: C1'_23  and  N9_24 
REMARK   11  A    between atoms: C6_29  and  N6_30 
ROOT
HETATM    1  C4' ATP A 501      42.516  18.152  13.942  1.00  5.20     0.180 C 
HETATM    2  O4' ATP A 501      42.535  19.526  13.584  1.00  4.96    -0.353 OA
HETATM    3  C3' ATP A 501      41.045  17.913  14.230  1.00  5.52     0.182 C 
HETATM    4  C2' ATP A 501      40.617  19.185  14.945  1.00  4.80     0.198 C 
HETATM    5  C1' ATP A 501      41.614  20.222  14.435  1.00  4.22     0.262 C 
ENDROOT
BRANCH   5   6
HETATM    6  N9  ATP A 501      41.061  21.311  13.617  1.00  3.78    -0.297 N 
HETATM    7  C4  ATP A 501      39.785  21.758  13.582  1.00  3.29     0.142 A 
HETATM    8  N3  ATP A 501      38.728  21.385  14.338  1.00  4.79    -0.336 N 
HETATM    9  C5  ATP A 501      39.755  22.746  12.592  1.00  3.65     0.122 A 
HETATM   10  C2  ATP A 501      37.592  22.063  14.088  1.00  4.70     0.183 A 
HETATM   12  N1  ATP A 501      37.467  23.019  13.126  1.00  4.95    -0.337 N 
HETATM   13  C6  ATP A 501      38.536  23.385  12.365  1.00  4.22     0.131 A 
HETATM   15  N7  ATP A 501      40.998  22.915  12.055  1.00  4.47    -0.346 N 
HETATM   16  C8  ATP A 501      41.770  22.017  12.683  1.00  4.18     0.188 A 
BRANCH  13  18
HETATM   18  N6  ATP A 501      38.333  24.275  11.386  1.00  5.27    -0.383 N 
ATOM     19  H62 ATP A 501      37.632  24.056  10.679  1.00  0.00     0.157 HD
ATOM     20  H61 ATP A 501      38.883  25.127  11.271  1.00  0.00     0.157 HD
ENDBRANCH  13  18
ENDBRANCH   5   6
BRANCH   4  21
HETATM   21  O2' ATP A 501      40.714  19.037  16.347  1.00  6.19    -0.388 OA
ATOM     22  H2' ATP A 501      39.862  18.873  16.733  1.00  0.00     0.210 HD
ENDBRANCH   4  21
BRANCH   3  23
HETATM   23  O3' ATP A 501      40.794  16.739  14.952  1.00  7.48    -0.390 OA
ATOM     24  H3' ATP A 501      39.873  16.525  15.038  1.00  0.00     0.210 HD
ENDBRANCH   3  23
BRANCH   1  25
HETATM   25  C5' ATP A 501      43.006  17.285  12.809  1.00  6.42     0.216 C 
BRANCH  25  26
HETATM   26  O5' ATP A 501      43.971  17.981  12.046  1.00  6.65    -0.287 OA
BRANCH  26  27
HETATM   27  PA  ATP A 501      45.527  17.732  12.214  1.00  6.54     0.417 P 
HETATM   28  O2A ATP A 501      45.901  16.359  11.711  1.00  7.34    -0.624 OA
HETATM   29  O1A ATP A 501      46.179  18.947  11.676  1.00  8.18    -0.624 OA
BRANCH  27  30
HETATM   30  O3A ATP A 501      45.707  17.649  13.815  1.00  6.94    -0.180 OA
BRANCH  30  31
HETATM   31  PB  ATP A 501      46.791  18.445  14.692  1.00  6.53     0.428 P 
HETATM   32  O1B ATP A 501      48.116  18.326  14.063  1.00  8.60    -0.624 OA
HETATM   33  O2B ATP A 501      46.293  19.830  14.945  1.00  5.78    -0.624 OA
BRANCH  31  34
HETATM   34  O3B ATP A 501      46.699  17.547  16.002  1.00  7.50    -0.173 OA
BRANCH  34  35
HETATM   35  PG  ATP A 501      47.077  18.014  17.495  1.00  8.07     0.431 P 
HETATM   36  O2G ATP A 501      47.113  16.742  18.308  1.00  9.86    -0.616 OA
HETATM   37  O3G ATP A 501      45.908  18.902  17.918  1.00  9.14    -0.616 OA
HETATM   38  O1G ATP A 501      48.393  18.746  17.403  1.00  6.46    -0.616 OA
ENDBRANCH  34  35
ENDBRANCH  31  34
ENDBRANCH  30  31
ENDBRANCH  27  30
ENDBRANCH  26  27
ENDBRANCH  25  26
ENDBRANCH   1  25
TORSDOF 11
ENDMDL
MODEL 5
REMARK VINA RESULT:      -8.2      1.782      3.517
REMARK  11 active torsions:
REMARK  status: ('A' for Active; 'I' for Inactive)
REMARK    1  A    between atoms: PG_1  and  O3B_8 
REMARK    2  A    between atoms: PB_5  and  O3A_12 
REMARK    3  A    between atoms: PB_5  and  O3B_8 
REMARK    4  A    between atoms: PA_9  and  O5'_13 
REMARK    5  A    between atoms: PA_9  and  O3A_12 
REMARK    6  A    between atoms: O5'_13  and  C5'_14 
REMARK    7  A    between atoms: C5'_14  and  C4'_15 
REMARK    8  A    between atoms: C3'_17  and  O3'_18 
REMARK    9  A    between atoms: C2'_20  and  O2'_21 
REMARK   10  A    between atoms: C1'_23  and  N9_24 
REMARK   11  A    between atoms: C6_29  and  N6_30 
ROOT
HETATM    1  C4' ATP A 501      42.316  19.630  14.652  1.00  5.20     0.180 C 
HETATM    2  O4' ATP A 501      41.700  20.908  14.589  1.00  4.96    -0.353 OA
HETATM    3  C3' ATP A 501      41.545  18.848  13.604  1.00  5.52     0.182 C 
HETATM    4  C2' ATP A 501      40.114  19.330  13.790  1.00  4.80     0.198 C 
HETATM    5  C1' ATP A 501      40.291  20.718  14.399  1.00  4.22     0.262 C 
ENDROOT
BRANCH   5   6
HETATM    6  N9  ATP A 501      39.842  21.852  13.580  1.00  3.78    -0.297 N 
HETATM    7  C4  ATP A 501      38.581  22.313  13.421  1.00  3.29     0.142 A 
HETATM    8  N3  ATP A 501      37.442  21.915  14.031  1.00  4.79    -0.336 N 
HETATM    9  C5  ATP A 501      38.670  23.350  12.486  1.00  3.65     0.122 A 
HETATM   10  C2  ATP A 501      36.345  22.616  13.687  1.00  4.70     0.183 A 
HETATM   12  N1  ATP A 501      36.337  23.620  12.768  1.00  4.95    -0.337 N 
HETATM   13  C6  ATP A 501      37.488  24.013  12.153  1.00  4.22     0.131 A 
HETATM   15  N7  ATP A 501      39.967  23.532  12.104  1.00  4.47    -0.346 N 
HETATM   16  C8  ATP A 501      40.658  22.596  12.770  1.00  4.18     0.188 A 
BRANCH  13  18
HETATM   18  N6  ATP A 501      37.404  24.953  11.205  1.00  5.27    -0.383 N 
ATOM     19  H62 ATP A 501      36.963  25.839  11.448  1.00  0.00     0.157 HD
ATOM     20  H61 ATP A 501      37.695  24.811  10.237  1.00  0.00     0.157 HD
ENDBRANCH  13  18
ENDBRANCH   5   6
BRANCH   4  21
HETATM   21  O2' ATP A 501      39.401  18.480  14.665  1.00  6.19    -0.388 OA
ATOM     22  H2' ATP A 501      39.794  17.616  14.698  1.00  0.00     0.210 HD
ENDBRANCH   4  21
BRANCH   3  23
HETATM   23  O3' ATP A 501      41.699  17.460  13.708  1.00  7.48    -0.390 OA
ATOM     24  H3' ATP A 501      42.008  17.166  14.557  1.00  0.00     0.210 HD
ENDBRANCH   3  23
BRANCH   1  25
HETATM   25  C5' ATP A 501      43.783  19.712  14.313  1.00  6.42     0.216 C 
BRANCH  25  26
HETATM   26  O5' ATP A 501      43.972  19.516  12.925  1.00  6.65    -0.287 OA
BRANCH  26  27
HETATM   27  PA  ATP A 501      45.399  19.232  12.295  1.00  6.54     0.417 P 
HETATM   28  O2A ATP A 501      45.283  18.980  10.812  1.00  7.34    -0.624 OA
HETATM   29  O1A ATP A 501      46.279  20.299  12.823  1.00  8.18    -0.624 OA
BRANCH  27  30
HETATM   30  O3A ATP A 501      45.793  17.802  12.928  1.00  6.94    -0.180 OA
BRANCH  30  31
HETATM   31  PB  ATP A 501      45.154  16.381  12.539  1.00  6.53     0.428 P 
HETATM   32  O1B ATP A 501      45.311  15.447  13.666  1.00  8.60    -0.624 OA
HETATM   33  O2B ATP A 501      43.765  16.592  12.034  1.00  5.78    -0.624 OA
BRANCH  31  34
HETATM   34  O3B ATP A 501      46.155  16.020  11.356  1.00  7.50    -0.173 OA
BRANCH  34  35
HETATM   35  PG  ATP A 501      46.264  14.596  10.615  1.00  8.07     0.431 P 
HETATM   36  O2G ATP A 501      44.844  14.094  10.516  1.00  9.86    -0.616 OA
HETATM   37  O3G ATP A 501      47.084  13.735  11.574  1.00  9.14    -0.616 OA
HETATM   38  O1G ATP A 501      46.944  14.845   9.290  1.00  6.46    -0.616 OA
ENDBRANCH  34  35
ENDBRANCH  31  34
ENDBRANCH  30  31
ENDBRANCH  27  30
ENDBRANCH  26  27
ENDBRANCH  25  26
ENDBRANCH   1  25
TORSDOF 11
ENDMDL
MODEL 6
REMARK VINA RESULT:      -8.2      5.798      8.104
REMARK  11 active torsions:
REMARK  status: ('A' for Active; 'I' for Inactive)
REMARK    1  A    between atoms: PG_1  and  O3B_8 
REMARK    2  A    between atoms: PB_5  and  O3A_12 
REMARK    3  A    between atoms: PB_5  and  O3B_8 
REMARK    4  A    between atoms: PA_9  and  O5'_13 
REMARK    5  A    between atoms: PA_9  and  O3A_12 
REMARK    6  A    between atoms: O5'_13  and  C5'_14 
REMARK    7  A    between atoms: C5'_14  and  C4'_15 
REMARK    8  A    between atoms: C3'_17  and  O3'_18 
REMARK    9  A    between atoms: C2'_20  and  O2'_21 
REMARK   10  A    between atoms: C1'_23  and  N9_24 
REMARK   11  A    between atoms: C6_29  and  N6_30 
ROOT
HETATM    1  C4' ATP A 501      44.550  18.442  13.114  1.00  5.20     0.180 C 
HETATM    2  O4' ATP A 501      45.306  18.365  14.314  1.00  4.96    -0.353 OA
HETATM    3  C3' ATP A 501      45.623  18.702  12.072  1.00  5.52     0.182 C 
HETATM    4  C2' ATP A 501      46.568  19.664  12.775  1.00  4.80     0.198 C 
HETATM    5  C1' ATP A 501      46.343  19.354  14.252  1.00  4.22     0.262 C 
ENDROOT
BRANCH   5   6
HETATM    6  N9  ATP A 501      47.485  18.780  14.979  1.00  3.78    -0.297 N 
HETATM    7  C4  ATP A 501      47.605  18.579  16.311  1.00  3.29     0.142 A 
HETATM    8  N3  ATP A 501      46.691  18.765  17.289  1.00  4.79    -0.336 N 
HETATM    9  C5  ATP A 501      48.901  18.089  16.506  1.00  3.65     0.122 A 
HETATM   10  C2  ATP A 501      47.109  18.421  18.522  1.00  4.70     0.183 A 
HETATM   12  N1  ATP A 501      48.359  17.963  18.806  1.00  4.95    -0.337 N 
HETATM   13  C6  ATP A 501      49.277  17.782  17.814  1.00  4.22     0.131 A 
HETATM   15  N7  ATP A 501      49.547  17.972  15.310  1.00  4.47    -0.346 N 
HETATM   16  C8  ATP A 501      48.670  18.416  14.399  1.00  4.18     0.188 A 
BRANCH  13  18
HETATM   18  N6  ATP A 501      50.511  17.403  18.164  1.00  5.27    -0.383 N 
ATOM     19  H62 ATP A 501      50.854  17.681  19.083  1.00  0.00     0.157 HD
ATOM     20  H61 ATP A 501      51.151  16.908  17.542  1.00  0.00     0.157 HD
ENDBRANCH  13  18
ENDBRANCH   5   6
BRANCH   4  21
HETATM   21  O2' ATP A 501      46.236  21.007  12.484  1.00  6.19    -0.388 OA
ATOM     22  H2' ATP A 501      46.093  21.130  11.553  1.00  0.00     0.210 HD
ENDBRANCH   4  21
BRANCH   3  23
HETATM   23  O3' ATP A 501      45.123  19.180  10.854  1.00  7.48    -0.390 OA
ATOM     24  H3' ATP A 501      45.751  19.676  10.343  1.00  0.00     0.210 HD
ENDBRANCH   3  23
BRANCH   1  25
HETATM   25  C5' ATP A 501      43.819  17.150  12.844  1.00  6.42     0.216 C 
BRANCH  25  26
HETATM   26  O5' ATP A 501      42.474  17.416  12.498  1.00  6.65    -0.287 OA
BRANCH  26  27
HETATM   27  PA  ATP A 501      41.336  17.585  13.588  1.00  6.54     0.417 P 
HETATM   28  O2A ATP A 501      39.995  17.189  13.020  1.00  7.34    -0.624 OA
HETATM   29  O1A ATP A 501      41.866  16.944  14.812  1.00  8.18    -0.624 OA
BRANCH  27  30
HETATM   30  O3A ATP A 501      41.250  19.185  13.773  1.00  6.94    -0.180 OA
BRANCH  30  31
HETATM   31  PB  ATP A 501      40.484  19.967  14.948  1.00  6.53     0.428 P 
HETATM   32  O1B ATP A 501      39.040  19.699  14.857  1.00  8.60    -0.624 OA
HETATM   33  O2B ATP A 501      41.141  19.654  16.252  1.00  5.78    -0.624 OA
BRANCH  31  34
HETATM   34  O3B ATP A 501      40.821  21.446  14.469  1.00  7.50    -0.173 OA
BRANCH  34  35
HETATM   35  PG  ATP A 501      40.928  21.941  12.941  1.00  8.07     0.431 P 
HETATM   36  O2G ATP A 501      42.199  21.319  12.415  1.00  9.86    -0.616 OA
HETATM   37  O3G ATP A 501      41.065  23.458  13.047  1.00  9.14    -0.616 OA
HETATM   38  O1G ATP A 501      39.666  21.491  12.247  1.00  6.46    -0.616 OA
ENDBRANCH  34  35
ENDBRANCH  31  34
ENDBRANCH  30  31
ENDBRANCH  27  30
ENDBRANCH  26  27
ENDBRANCH  25  26
ENDBRANCH   1  25
TORSDOF 11
ENDMDL
MODEL 7
REMARK VINA RESULT:      -7.8      2.046      3.969
REMARK  11 active torsions:
REMARK  status: ('A' for Active; 'I' for Inactive)
REMARK    1  A    between atoms: PG_1  and  O3B_8 
REMARK    2  A    between atoms: PB_5  and  O3A_12 
REMARK    3  A    between atoms: PB_5  and  O3B_8 
REMARK    4  A    between atoms: PA_9  and  O5'_13 
REMARK    5  A    between atoms: PA_9  and  O3A_12 
REMARK    6  A    between atoms: O5'_13  and  C5'_14 
REMARK    7  A    between atoms: C5'_14  and  C4'_15 
REMARK    8  A    between atoms: C3'_17  and  O3'_18 
REMARK    9  A    between atoms: C2'_20  and  O2'_21 
REMARK   10  A    between atoms: C1'_23  and  N9_24 
REMARK   11  A    between atoms: C6_29  and  N6_30 
ROOT
HETATM    1  C4' ATP A 501      42.147  19.856  14.538  1.00  5.20     0.180 C 
HETATM    2  O4' ATP A 501      41.545  21.138  14.444  1.00  4.96    -0.353 OA
HETATM    3  C3' ATP A 501      41.289  19.027  13.599  1.00  5.52     0.182 C 
HETATM    4  C2' ATP A 501      39.884  19.544  13.861  1.00  4.80     0.198 C 
HETATM    5  C1' ATP A 501      40.124  20.961  14.371  1.00  4.22     0.262 C 
ENDROOT
BRANCH   5   6
HETATM    6  N9  ATP A 501      39.629  22.053  13.521  1.00  3.78    -0.297 N 
HETATM    7  C4  ATP A 501      38.354  22.481  13.376  1.00  3.29     0.142 A 
HETATM    8  N3  ATP A 501      37.240  22.081  14.030  1.00  4.79    -0.336 N 
HETATM    9  C5  ATP A 501      38.397  23.482  12.400  1.00  3.65     0.122 A 
HETATM   10  C2  ATP A 501      36.120  22.745  13.687  1.00  4.70     0.183 A 
HETATM   12  N1  ATP A 501      36.065  23.712  12.730  1.00  4.95    -0.337 N 
HETATM   13  C6  ATP A 501      37.193  24.105  12.072  1.00  4.22     0.131 A 
HETATM   15  N7  ATP A 501      39.680  23.677  11.979  1.00  4.47    -0.346 N 
HETATM   16  C8  ATP A 501      40.408  22.782  12.663  1.00  4.18     0.188 A 
BRANCH  13  18
HETATM   18  N6  ATP A 501      37.064  25.006  11.091  1.00  5.27    -0.383 N 
ATOM     19  H62 ATP A 501      37.552  25.895  11.191  1.00  0.00     0.157 HD
ATOM     20  H61 ATP A 501      36.455  24.880  10.282  1.00  0.00     0.157 HD
ENDBRANCH  13  18
ENDBRANCH   5   6
BRANCH   4  21
HETATM   21  O2' ATP A 501      39.227  18.759  14.837  1.00  6.19    -0.388 OA
ATOM     22  H2' ATP A 501      39.298  19.155  15.697  1.00  0.00     0.210 HD
ENDBRANCH   4  21
BRANCH   3  23
HETATM   23  O3' ATP A 501      41.434  17.644  13.775  1.00  7.48    -0.390 OA
ATOM     24  H3' ATP A 501      41.900  17.210  13.071  1.00  0.00     0.210 HD
ENDBRANCH   3  23
BRANCH   1  25
HETATM   25  C5' ATP A 501      43.586  19.892  14.086  1.00  6.42     0.216 C 
BRANCH  25  26
HETATM   26  O5' ATP A 501      44.268  18.741  14.545  1.00  6.65    -0.287 OA
BRANCH  26  27
HETATM   27  PA  ATP A 501      45.812  18.756  14.902  1.00  6.54     0.417 P 
HETATM   28  O2A ATP A 501      46.611  18.054  13.832  1.00  7.34    -0.624 OA
HETATM   29  O1A ATP A 501      46.112  20.154  15.286  1.00  8.18    -0.624 OA
BRANCH  27  30
HETATM   30  O3A ATP A 501      45.894  17.782  16.185  1.00  6.94    -0.180 OA
BRANCH  30  31
HETATM   31  PB  ATP A 501      46.935  17.898  17.402  1.00  6.53     0.428 P 
HETATM   32  O1B ATP A 501      48.279  18.186  16.874  1.00  8.60    -0.624 OA
HETATM   33  O2B ATP A 501      46.397  18.853  18.416  1.00  5.78    -0.624 OA
BRANCH  31  34
HETATM   34  O3B ATP A 501      46.833  16.394  17.909  1.00  7.50    -0.173 OA
BRANCH  34  35
HETATM   35  PG  ATP A 501      47.785  15.179  17.456  1.00  8.07     0.431 P 
HETATM   36  O2G ATP A 501      47.796  15.229  15.947  1.00  9.86    -0.616 OA
HETATM   37  O3G ATP A 501      47.064  13.929  17.957  1.00  9.14    -0.616 OA
HETATM   38  O1G ATP A 501      49.126  15.409  18.108  1.00  6.46    -0.616 OA
ENDBRANCH  34  35
ENDBRANCH  31  34
ENDBRANCH  30  31
ENDBRANCH  27  30
ENDBRANCH  26  27
ENDBRANCH  25  26
ENDBRANCH   1  25
TORSDOF 11
ENDMDL
MODEL 8
REMARK VINA RESULT:      -7.8      1.802      2.811
REMARK  11 active torsions:
REMARK  status: ('A' for Active; 'I' for Inactive)
REMARK    1  A    between atoms: PG_1  and  O3B_8 
REMARK    2  A    between atoms: PB_5  and  O3A_12 
REMARK    3  A    between atoms: PB_5  and  O3B_8 
REMARK    4  A    between atoms: PA_9  and  O5'_13 
REMARK    5  A    between atoms: PA_9  and  O3A_12 
REMARK    6  A    between atoms: O5'_13  and  C5'_14 
REMARK    7  A    between atoms: C5'_14  and  C4'_15 
REMARK    8  A    between atoms: C3'_17  and  O3'_18 
REMARK    9  A    between atoms: C2'_20  and  O2'_21 
REMARK   10  A    between atoms: C1'_23  and  N9_24 
REMARK   11  A    between atoms: C6_29  and  N6_30 
ROOT
HETATM    1  C4' ATP A 501      42.212  19.809  14.319  1.00  5.20     0.180 C 
HETATM    2  O4' ATP A 501      41.663  21.117  14.243  1.00  4.96    -0.353 OA
HETATM    3  C3' ATP A 501      41.244  19.004  13.470  1.00  5.52     0.182 C 
HETATM    4  C2' ATP A 501      39.889  19.591  13.832  1.00  4.80     0.198 C 
HETATM    5  C1' ATP A 501      40.234  21.006  14.289  1.00  4.22     0.262 C 
ENDROOT
BRANCH   5   6
HETATM    6  N9  ATP A 501      39.722  22.104  13.456  1.00  3.78    -0.297 N 
HETATM    7  C4  ATP A 501      38.441  22.515  13.321  1.00  3.29     0.142 A 
HETATM    8  N3  ATP A 501      37.335  22.091  13.970  1.00  4.79    -0.336 N 
HETATM    9  C5  ATP A 501      38.468  23.532  12.359  1.00  3.65     0.122 A 
HETATM   10  C2  ATP A 501      36.204  22.744  13.640  1.00  4.70     0.183 A 
HETATM   12  N1  ATP A 501      36.135  23.724  12.698  1.00  4.95    -0.337 N 
HETATM   13  C6  ATP A 501      37.255  24.143  12.044  1.00  4.22     0.131 A 
HETATM   15  N7  ATP A 501      39.748  23.751  11.938  1.00  4.47    -0.346 N 
HETATM   16  C8  ATP A 501      40.489  22.856  12.607  1.00  4.18     0.188 A 
BRANCH  13  18
HETATM   18  N6  ATP A 501      37.111  25.056  11.076  1.00  5.27    -0.383 N 
ATOM     19  H62 ATP A 501      37.248  26.037  11.320  1.00  0.00     0.157 HD
ATOM     20  H61 ATP A 501      36.811  24.834  10.126  1.00  0.00     0.157 HD
ENDBRANCH  13  18
ENDBRANCH   5   6
BRANCH   4  21
HETATM   21  O2' ATP A 501      39.278  18.858  14.875  1.00  6.19    -0.388 OA
ATOM     22  H2' ATP A 501      38.952  19.436  15.554  1.00  0.00     0.210 HD
ENDBRANCH   4  21
BRANCH   3  23
HETATM   23  O3' ATP A 501      41.339  17.620  13.666  1.00  7.48    -0.390 OA
ATOM     24  H3' ATP A 501      42.222  17.277  13.597  1.00  0.00     0.210 HD
ENDBRANCH   3  23
BRANCH   1  25
HETATM   25  C5' ATP A 501      43.609  19.768  13.753  1.00  6.42     0.216 C 
BRANCH  25  26
HETATM   26  O5' ATP A 501      44.109  18.446  13.787  1.00  6.65    -0.287 OA
BRANCH  26  27
HETATM   27  PA  ATP A 501      44.786  17.762  12.527  1.00  6.54     0.417 P 
HETATM   28  O2A ATP A 501      44.119  16.445  12.216  1.00  7.34    -0.624 OA
HETATM   29  O1A ATP A 501      44.882  18.829  11.506  1.00  8.18    -0.624 OA
BRANCH  27  30
HETATM   30  O3A ATP A 501      46.249  17.365  13.077  1.00  6.94    -0.180 OA
BRANCH  30  31
HETATM   31  PB  ATP A 501      46.664  15.970  13.754  1.00  6.53     0.428 P 
HETATM   32  O1B ATP A 501      46.455  14.875  12.793  1.00  8.60    -0.624 OA
HETATM   33  O2B ATP A 501      48.034  16.097  14.335  1.00  5.78    -0.624 OA
BRANCH  31  34
HETATM   34  O3B ATP A 501      45.551  15.950  14.891  1.00  7.50    -0.173 OA
BRANCH  34  35
HETATM   35  PG  ATP A 501      45.605  15.092  16.250  1.00  8.07     0.431 P 
HETATM   36  O2G ATP A 501      46.366  13.837  15.894  1.00  9.86    -0.616 OA
HETATM   37  O3G ATP A 501      44.142  14.776  16.554  1.00  9.14    -0.616 OA
HETATM   38  O1G ATP A 501      46.267  15.962  17.290  1.00  6.46    -0.616 OA
ENDBRANCH  34  35
ENDBRANCH  31  34
ENDBRANCH  30  31
ENDBRANCH  27  30
ENDBRANCH  26  27
ENDBRANCH  25  26
ENDBRANCH   1  25
TORSDOF 11
ENDMDL
MODEL 9
REMARK VINA RESULT:      -7.7      6.028      8.430
REMARK  11 active torsions:
REMARK  status: ('A' for Active; 'I' for Inactive)
REMARK    1  A    between atoms: PG_1  and  O3B_8 
REMARK    2  A    between atoms: PB_5  and  O3A_12 
REMARK    3  A    between atoms: PB_5  and  O3B_8 
REMARK    4  A    between atoms: PA_9  and  O5'_13 
REMARK    5  A    between atoms: PA_9  and  O3A_12 
REMARK    6  A    between atoms: O5'_13  and  C5'_14 
REMARK    7  A    between atoms: C5'_14  and  C4'_15 
REMARK    8  A    between atoms: C3'_17  and  O3'_18 
REMARK    9  A    between atoms: C2'_20  and  O2'_21 
REMARK   10  A    between atoms: C1'_23  and  N9_24 
REMARK   11  A    between atoms: C6_29  and  N6_30 
ROOT
HETATM    1  C4' ATP A 501      44.648  18.562  13.199  1.00  5.20     0.180 C 
HETATM    2  O4' ATP A 501      45.477  18.396  14.341  1.00  4.96    -0.353 OA
HETATM    3  C3' ATP A 501      45.665  18.729  12.084  1.00  5.52     0.182 C 
HETATM    4  C2' ATP A 501      46.748  19.585  12.723  1.00  4.80     0.198 C 
HETATM    5  C1' ATP A 501      46.599  19.279  14.211  1.00  4.22     0.262 C 
ENDROOT
BRANCH   5   6
HETATM    6  N9  ATP A 501      47.727  18.586  14.850  1.00  3.78    -0.297 N 
HETATM    7  C4  ATP A 501      48.169  17.329  14.619  1.00  3.29     0.142 A 
HETATM    8  N3  ATP A 501      47.753  16.434  13.696  1.00  4.79    -0.336 N 
HETATM    9  C5  ATP A 501      49.208  17.117  15.533  1.00  3.65     0.122 A 
HETATM   10  C2  ATP A 501      48.438  15.274  13.690  1.00  4.70     0.183 A 
HETATM   12  N1  ATP A 501      49.442  14.974  14.559  1.00  4.95    -0.337 N 
HETATM   13  C6  ATP A 501      49.852  15.881  15.490  1.00  4.22     0.131 A 
HETATM   15  N7  ATP A 501      49.409  18.236  16.288  1.00  4.47    -0.346 N 
HETATM   16  C8  ATP A 501      48.483  19.109  15.865  1.00  4.18     0.188 A 
BRANCH  13  18
HETATM   18  N6  ATP A 501      50.791  15.500  16.365  1.00  5.27    -0.383 N 
ATOM     19  H62 ATP A 501      51.000  14.505  16.439  1.00  0.00     0.157 HD
ATOM     20  H61 ATP A 501      51.261  16.139  17.006  1.00  0.00     0.157 HD
ENDBRANCH  13  18
ENDBRANCH   5   6
BRANCH   4  21
HETATM   21  O2' ATP A 501      46.531  20.957  12.465  1.00  6.19    -0.388 OA
ATOM     22  H2' ATP A 501      45.933  21.078  11.737  1.00  0.00     0.210 HD
ENDBRANCH   4  21
BRANCH   3  23
HETATM   23  O3' ATP A 501      45.129  19.269  10.908  1.00  7.48    -0.390 OA
ATOM     24  H3' ATP A 501      45.092  18.658  10.182  1.00  0.00     0.210 HD
ENDBRANCH   3  23
BRANCH   1  25
HETATM   25  C5' ATP A 501      43.776  17.352  12.975  1.00  6.42     0.216 C 
BRANCH  25  26
HETATM   26  O5' ATP A 501      42.461  17.755  12.649  1.00  6.65    -0.287 OA
BRANCH  26  27
HETATM   27  PA  ATP A 501      41.241  17.553  13.641  1.00  6.54     0.417 P 
HETATM   28  O2A ATP A 501      40.088  16.883  12.934  1.00  7.34    -0.624 OA
HETATM   29  O1A ATP A 501      41.827  16.970  14.869  1.00  8.18    -0.624 OA
BRANCH  27  30
HETATM   30  O3A ATP A 501      40.741  19.063  13.909  1.00  6.94    -0.180 OA
BRANCH  30  31
HETATM   31  PB  ATP A 501      41.239  20.035  15.085  1.00  6.53     0.428 P 
HETATM   32  O1B ATP A 501      40.557  19.678  16.340  1.00  8.60    -0.624 OA
HETATM   33  O2B ATP A 501      42.732  20.042  15.115  1.00  5.78    -0.624 OA
BRANCH  31  34
HETATM   34  O3B ATP A 501      40.663  21.394  14.491  1.00  7.50    -0.173 OA
BRANCH  34  35
HETATM   35  PG  ATP A 501      40.872  21.929  12.988  1.00  8.07     0.431 P 
HETATM   36  O2G ATP A 501      39.640  21.486  12.237  1.00  9.86    -0.616 OA
HETATM   37  O3G ATP A 501      42.112  21.186  12.493  1.00  9.14    -0.616 OA
HETATM   38  O1G ATP A 501      41.057  23.424  13.079  1.00  6.46    -0.616 OA
ENDBRANCH  34  35
ENDBRANCH  31  34
ENDBRANCH  30  31
ENDBRANCH  27  30
ENDBRANCH  26  27
ENDBRANCH  25  26
ENDBRANCH   1  25
TORSDOF 11
ENDMDL
