REMARK  4 active torsions:
REMARK  status: ('A' for Active; 'I' for Inactive)
REMARK       I    between atoms: N2_14  and  C12_15 
REMARK    1  A    between atoms: C12_15  and  C13_17 
REMARK       I    between atoms: N3_20  and  C16_21 
REMARK    2  A    between atoms: C16_21  and  C17_23 
REMARK    3  A    between atoms: C19_25  and  C20_26 
REMARK    4  A    between atoms: C20_26  and  C21_27 
ROOT
HETATM    1  C13 UNL     1      -2.176  -1.386  -0.981  1.00  0.00     0.089 C 
HETATM    2  C14 UNL     1      -0.826  -1.876  -0.409  1.00  0.00     0.042 C 
HETATM    3  C15 UNL     1      -0.268  -0.940   0.679  1.00  0.00     0.246 C 
HETATM    4  N3  UNL     1      -1.267  -0.707   1.747  1.00  0.00    -0.004 N 
HETATM    5  C16 UNL     1      -0.679   0.095   2.810  1.00  0.00     0.352 C 
HETATM    6  O3  UNL     1      -0.946   1.330   2.878  1.00  0.00    -0.260 OA
HETATM    7  C32 UNL     1      -2.471  -0.062   1.175  1.00  0.00     0.246 C 
HETATM    8  C33 UNL     1      -3.144  -0.980   0.145  1.00  0.00     0.042 C 
HETATM    9  H18 UNL     1      -1.578  -1.619   2.154  1.00  0.00     0.290 HD
ENDROOT
BRANCH   5  10
HETATM   10  C17 UNL     1       0.251  -0.499   3.827  1.00  0.00     0.079 A 
HETATM   11  C18 UNL     1       0.589  -1.869   3.795  1.00  0.00     0.027 A 
HETATM   12  C19 UNL     1       1.522  -2.411   4.693  1.00  0.00    -0.051 A 
HETATM   13  C29 UNL     1       2.069  -1.594   5.689  1.00  0.00     0.010 A 
HETATM   14  C30 UNL     1       1.721  -0.247   5.759  1.00  0.00     0.044 A 
HETATM   15  C31 UNL     1       0.830   0.305   4.835  1.00  0.00     0.132 A 
HETATM   16  F1  UNL     1       0.543   1.628   4.935  1.00  0.00    -0.205 F 
BRANCH  12  17
HETATM   17  C20 UNL     1       1.913  -3.866   4.595  1.00  0.00     0.100 C 
BRANCH  17  18
HETATM   18  C21 UNL     1       2.358  -4.224   3.195  1.00  0.00     0.070 A 
HETATM   19  N4  UNL     1       1.528  -4.995   2.443  1.00  0.00    -0.175 NA
HETATM   20  N5  UNL     1       1.811  -5.336   1.186  1.00  0.00    -0.243 N 
HETATM   21  C22 UNL     1       2.954  -4.924   0.578  1.00  0.00     0.272 A 
HETATM   22  H22 UNL     1       1.131  -5.930   0.661  1.00  0.00     0.192 HD
HETATM   23  O4  UNL     1       3.181  -5.265  -0.615  1.00  0.00    -0.266 OA
HETATM   24  C23 UNL     1       3.866  -4.125   1.287  1.00  0.00     0.046 A 
HETATM   25  C24 UNL     1       5.063  -3.679   0.693  1.00  0.00     0.018 A 
HETATM   26  C28 UNL     1       3.569  -3.766   2.625  1.00  0.00     0.006 A 
HETATM   27  C25 UNL     1       5.956  -2.888   1.417  1.00  0.00     0.001 A 
HETATM   28  C26 UNL     1       5.671  -2.537   2.736  1.00  0.00     0.001 A 
HETATM   29  C27 UNL     1       4.490  -2.972   3.340  1.00  0.00     0.014 A 
ENDBRANCH  17  18
ENDBRANCH  12  17
ENDBRANCH   5  10
BRANCH   1  30
HETATM   30  C12 UNL     1      -2.022  -0.276  -2.010  1.00  0.00     0.321 C 
HETATM   31  N2  UNL     1      -2.991  -0.145  -3.091  1.00  0.00     0.001 N 
HETATM   32  C3  UNL     1      -3.441   1.252  -3.347  1.00  0.00     0.249 C 
HETATM   33  C11 UNL     1      -2.479  -0.763  -4.332  1.00  0.00     0.250 C 
HETATM   34  H12 UNL     1      -3.845  -0.690  -2.822  1.00  0.00     0.291 HD
HETATM   35  C2  UNL     1      -3.964   1.951  -2.068  1.00  0.00     0.161 C 
HETATM   36  C4  UNL     1      -2.381   2.091  -4.048  1.00  0.00    -0.003 A 
HETATM   37  N1  UNL     1      -4.356   3.324  -2.369  1.00  0.00    -0.355 N 
HETATM   38  C1  UNL     1      -3.529   4.139  -3.204  1.00  0.00     0.252 C 
HETATM   39  H1  UNL     1      -5.204   3.732  -1.917  1.00  0.00     0.162 HD
HETATM   40  O1  UNL     1      -3.731   5.381  -3.265  1.00  0.00    -0.268 OA
HETATM   41  C9  UNL     1      -2.458   3.502  -4.001  1.00  0.00     0.041 A 
HETATM   42  C8  UNL     1      -1.524   4.275  -4.706  1.00  0.00     0.017 A 
HETATM   43  C7  UNL     1      -0.525   3.656  -5.459  1.00  0.00     0.002 A 
HETATM   44  C6  UNL     1      -0.454   2.263  -5.524  1.00  0.00     0.008 A 
HETATM   45  C5  UNL     1      -1.387   1.471  -4.838  1.00  0.00    -0.047 A 
HETATM   46  C10 UNL     1      -1.251  -0.029  -4.898  1.00  0.00     0.067 C 
HETATM   47  O2  UNL     1      -1.085   0.508  -1.923  1.00  0.00    -0.265 OA
ENDBRANCH   1  30
TORSDOF 4
