REMARK  3 active torsions:
REMARK  status: ('A' for Active; 'I' for Inactive)
REMARK       I    between atoms: N1_1  and  C1_2 
REMARK    1  A    between atoms: C1_2  and  C2_4 
REMARK    2  A    between atoms: N2_10  and  C8_11 
REMARK    3  A    between atoms: C11_14  and  C12_15 
ROOT
HETATM    1  C2  UNL     1      -2.842  -3.221   3.936  1.00  0.00     0.063 A 
HETATM    2  C3  UNL     1      -3.332  -4.526   4.196  1.00  0.00     0.019 A 
HETATM    3  C4  UNL     1      -3.152  -5.568   3.258  1.00  0.00     0.002 A 
HETATM    4  C5  UNL     1      -2.478  -5.333   2.048  1.00  0.00     0.015 A 
HETATM    5  C6  UNL     1      -1.997  -4.049   1.821  1.00  0.00     0.013 A 
HETATM    6  C7  UNL     1      -1.319  -3.502   0.758  1.00  0.00     0.132 A 
HETATM    7  N2  UNL     1      -1.104  -2.193   1.047  1.00  0.00    -0.244 N 
HETATM    8  N4  UNL     1      -1.622  -1.901   2.238  1.00  0.00    -0.166 NA
HETATM    9  C19 UNL     1      -2.166  -3.033   2.721  1.00  0.00     0.104 A 
ENDROOT
BRANCH   7  10
HETATM   10  C8  UNL     1      -0.438  -1.220   0.215  1.00  0.00     0.058 A 
HETATM   11  C9  UNL     1       0.320  -1.609  -0.904  1.00  0.00     0.032 A 
HETATM   12  C10 UNL     1       0.960  -0.652  -1.696  1.00  0.00     0.010 A 
HETATM   13  C11 UNL     1       0.871   0.719  -1.390  1.00  0.00    -0.052 A 
HETATM   14  C17 UNL     1       0.110   1.104  -0.272  1.00  0.00     0.010 A 
HETATM   15  C18 UNL     1      -0.530   0.148   0.521  1.00  0.00     0.032 A 
BRANCH  13  16
HETATM   16  C12 UNL     1       1.574   1.731  -2.291  1.00  0.00     0.044 C 
HETATM   17  C13 UNL     1       2.581   2.644  -1.551  1.00  0.00     0.013 C 
HETATM   18  C14 UNL     1       1.980   3.956  -1.032  1.00  0.00     0.028 C 
HETATM   19  C15 UNL     1       1.092   4.620  -2.086  1.00  0.00     0.232 C 
HETATM   20  N3  UNL     1       0.034   3.708  -2.537  1.00  0.00    -0.074 N 
HETATM   21  C16 UNL     1       0.594   2.517  -3.194  1.00  0.00     0.241 C 
HETATM   22  H16 UNL     1      -0.581   3.434  -1.738  1.00  0.00     0.277 HD
HETATM   23  H17 UNL     1      -0.562   4.215  -3.232  1.00  0.00     0.277 HD
ENDBRANCH  13  16
ENDBRANCH   7  10
BRANCH   1  24
HETATM   24  C1  UNL     1      -3.015  -2.114   4.908  1.00  0.00     0.251 C 
HETATM   25  N1  UNL     1      -4.060  -2.137   5.884  1.00  0.00    -0.366 N 
HETATM   26  H1  UNL     1      -4.817  -2.854   5.863  1.00  0.00     0.159 HD
HETATM   27  H2  UNL     1      -4.126  -1.373   6.593  1.00  0.00     0.159 HD
HETATM   28  O1  UNL     1      -2.236  -1.124   4.875  1.00  0.00    -0.268 OA
ENDBRANCH   1  24
TORSDOF 3
