REMARK  3 active torsions:
REMARK  status: ('A' for Active; 'I' for Inactive)
REMARK    1  A    between atoms: N1_2  and  C2_3 
REMARK    2  A    between atoms: C2_3  and  C3_4 
REMARK    3  A    between atoms: C6_7  and  C7_8 
ROOT
HETATM    1  C7  UNL     1      -0.670  -0.877   0.143  1.00  0.00     0.050 A 
HETATM    2  N2  UNL     1      -0.586  -2.052   0.807  1.00  0.00    -0.354 N 
HETATM    3  C8  UNL     1      -1.479  -1.981   1.807  1.00  0.00     0.047 A 
HETATM    4  C9  UNL     1      -1.728  -2.963   2.761  1.00  0.00     0.072 A 
HETATM    5  C10 UNL     1      -2.694  -2.697   3.741  1.00  0.00     0.119 A 
HETATM    6  F1  UNL     1      -2.965  -3.629   4.688  1.00  0.00    -0.206 F 
HETATM    7  C11 UNL     1      -3.377  -1.465   3.754  1.00  0.00     0.060 A 
HETATM    8  C12 UNL     1      -3.119  -0.471   2.778  1.00  0.00     0.048 A 
HETATM    9  C13 UNL     1      -2.149  -0.777   1.803  1.00  0.00     0.015 A 
HETATM   10  C14 UNL     1      -1.651  -0.062   0.721  1.00  0.00    -0.015 A 
HETATM   11  C15 UNL     1      -2.126   1.270   0.219  1.00  0.00     0.061 C 
HETATM   12  C16 UNL     1      -3.633   1.419   0.390  1.00  0.00     0.127 C 
HETATM   13  N3  UNL     1      -3.957   1.747   1.772  1.00  0.00    -0.357 N 
HETATM   14  C17 UNL     1      -3.814   0.842   2.877  1.00  0.00     0.252 C 
HETATM   15  O1  UNL     1      -4.309   1.181   3.986  1.00  0.00    -0.268 OA
HETATM   16  H10 UNL     1       0.059  -2.848   0.601  1.00  0.00     0.166 HD
HETATM   17  H17 UNL     1      -4.400   2.675   1.957  1.00  0.00     0.162 HD
ENDROOT
BRANCH   1  18
HETATM   18  C6  UNL     1       0.178  -0.554  -1.025  1.00  0.00    -0.009 A 
HETATM   19  C5  UNL     1       0.438  -1.536  -1.993  1.00  0.00     0.014 A 
HETATM   20  C4  UNL     1       1.253  -1.249  -3.092  1.00  0.00     0.010 A 
HETATM   21  C3  UNL     1       1.833   0.022  -3.232  1.00  0.00    -0.033 A 
HETATM   22  C19 UNL     1       1.581   1.001  -2.259  1.00  0.00     0.010 A 
HETATM   23  C18 UNL     1       0.767   0.713  -1.160  1.00  0.00     0.014 A 
BRANCH  21  24
HETATM   24  C2  UNL     1       2.713   0.331  -4.421  1.00  0.00     0.270 C 
BRANCH  24  25
HETATM   25  N1  UNL     1       3.980  -0.419  -4.381  1.00  0.00    -0.075 N 
HETATM   26  C1  UNL     1       4.861   0.047  -3.304  1.00  0.00     0.267 C 
HETATM   27  H4  UNL     1       4.476  -0.279  -5.293  1.00  0.00     0.277 HD
HETATM   28  H5  UNL     1       3.798  -1.443  -4.264  1.00  0.00     0.277 HD
ENDBRANCH  24  25
ENDBRANCH  21  24
ENDBRANCH   1  18
TORSDOF 3
