REMARK  0 active torsions:
REMARK  status: ('A' for Active; 'I' for Inactive)
ROOT
HETATM    1  C1  UNL     1       2.022  -1.231   1.965  1.00  0.00     0.053 C 
HETATM    2  C2  UNL     1       1.780  -0.469   0.646  1.00  0.00     0.167 C 
HETATM    3  C3  UNL     1       2.761  -0.928  -0.440  1.00  0.00     0.047 C 
HETATM    4  C4  UNL     1       2.921   0.277  -1.350  1.00  0.00     0.030 C 
HETATM    5  C5  UNL     1       2.446   1.478  -0.536  1.00  0.00     0.236 C 
HETATM    6  N1  UNL     1       2.046   0.988   0.799  1.00  0.00    -0.052 N 
HETATM    7  C6  UNL     1       0.935   1.786   1.384  1.00  0.00     0.298 C 
HETATM    8  C7  UNL     1      -0.403   1.525   0.728  1.00  0.00     0.093 A 
HETATM    9  N2  UNL     1      -1.329   2.513   0.746  1.00  0.00    -0.174 NA
HETATM   10  N3  UNL     1      -2.591   2.556   0.311  1.00  0.00    -0.242 N 
HETATM   11  C8  UNL     1      -3.388   1.587  -0.241  1.00  0.00     0.272 A 
HETATM   12  O1  UNL     1      -4.568   1.934  -0.532  1.00  0.00    -0.266 OA
HETATM   13  C9  UNL     1      -3.026   0.247  -0.510  1.00  0.00     0.050 A 
HETATM   14  C10 UNL     1      -3.985  -0.655  -1.058  1.00  0.00     0.060 A 
HETATM   15  C11 UNL     1      -3.658  -1.996  -1.349  1.00  0.00     0.119 A 
HETATM   16  F1  UNL     1      -4.600  -2.823  -1.868  1.00  0.00    -0.206 F 
HETATM   17  C12 UNL     1      -2.367  -2.480  -1.106  1.00  0.00     0.072 A 
HETATM   18  C13 UNL     1      -1.436  -1.597  -0.576  1.00  0.00     0.047 A 
HETATM   19  N4  UNL     1      -0.153  -1.870  -0.275  1.00  0.00    -0.356 N 
HETATM   20  C14 UNL     1       0.351  -0.709   0.196  1.00  0.00     0.059 A 
HETATM   21  C15 UNL     1      -0.619   0.271   0.218  1.00  0.00     0.031 A 
HETATM   22  C16 UNL     1      -1.756  -0.284  -0.290  1.00  0.00     0.021 A 
HETATM   23  H10 UNL     1       2.877   1.115   1.427  1.00  0.00     0.281 HD
HETATM   24  H13 UNL     1      -3.053   3.485   0.441  1.00  0.00     0.192 HD
HETATM   25  H16 UNL     1       0.341  -2.783  -0.387  1.00  0.00     0.166 HD
ENDROOT
TORSDOF 0
